data_AlPO-18_Calcined
_cell_length_a         13.7114
_cell_length_b         12.7315
_cell_length_c         18.5706
_cell_angle_alpha     90
_cell_angle_beta      90.01
_cell_angle_gamma     90


# setting 
_symmetry_space_group_name_H-M 'C12/c1'


loop_
_symmetry_equiv_pos_as_xyz
'x,y,z'
'-x,y,-z+1/2'
'-x,-y,-z'
'x,-y,z-1/2'
'x+1/2,y+1/2,z'
'-x+1/2,y+1/2,-z+1/2'
'-x+1/2,-y+1/2,-z'
'x+1/2,-y+1/2,z-1/2'


loop_
_atom_site_label
_atom_site_type_symbol
_atom_site_fract_x
_atom_site_fract_y
_atom_site_fract_z
_atom_site_occupancy
_atom_site_U_iso_or_equiv
AL1 Al 0.88997 0.95872 0.16598 1.0 0.0095
AL2 Al 0.88129 0.22661 0.93877 1.0 0.0122
AL3 Al 0.22953 0.09687 0.04922 1.0 0.0180
P1 P 0.77251 0.09559 0.05384 1.0 0.0180
P2 P 0.10981 0.23135 0.93763 1.0 0.0122
P3 P 0.11634 0.96983 0.16394 1.0 0.0095
O1 O 0.17723 0.05318 0.12913 1.0 0.0091
O2 O 0.14278 0.16702 0.00209 1.0 0.0091
O3 O 0.00371 0.25884 0.94574 1.0 0.0091
O4 O 0.84714 0.16747 0.02039 1.0 0.0091
O5 O 0.81686 0.04552 0.12009 1.0 0.0091
O6 O 0.01022 0.99732 0.15632 1.0 0.0091
O7 O 0.13601 0.86260 0.13230 1.0 0.0091
O8 O 0.33199 0.16953 0.06981 1.0 0.0091
O9 O 0.85795 0.96546 0.25665 1.0 0.0091
O10 O 0.81531 0.33988 0.92509 1.0 0.0091
O11 O 0.12779 0.16274 0.87230 1.0 0.0091
O12 O 0.26213 -0.01281 0.99849 1.0 0.0091




