data_AlPO-8
_cell_length_a         33.2900
_cell_length_b         14.7036
_cell_length_c         8.3863
_cell_angle_alpha     90
_cell_angle_beta      90
_cell_angle_gamma     90


# setting 
_symmetry_space_group_name_H-M 'Cmcm'


loop_
_symmetry_equiv_pos_as_xyz
'x,y,z'
'x,-y,-z'
'-x,y,-z+1/2'
'-x,-y,z+1/2'
'-x,-y,-z'
'-x,y,z'
'x,-y,z-1/2'
'x,y,-z-1/2'
'x+1/2,y+1/2,z'
'x+1/2,-y+1/2,-z'
'-x+1/2,y+1/2,-z+1/2'
'-x+1/2,-y+1/2,z+1/2'
'-x+1/2,-y+1/2,-z'
'-x+1/2,y+1/2,z'
'x+1/2,-y+1/2,z-1/2'
'x+1/2,y+1/2,-z-1/2'


loop_
_atom_site_label
_atom_site_type_symbol
_atom_site_fract_x
_atom_site_fract_y
_atom_site_fract_z
_atom_site_occupancy
_atom_site_U_iso_or_equiv
T11 Si(T) 0.1904 0.416 0.066 1.0 0.0001
T12 Si(T) 0.0 0.132 -0.028 1.0 0.1570
T21 Si(T) 0.0878 0.094 0.055 1.0 0.0001
T22 Si(T) 0.2740 0.404 -0.061 1.0 0.0001
T23 Si(T) 0.1573 0.226 -0.071 1.0 0.0001
O11 O 0.1767 0.5 0.0 1.0 0.0038
O12 O 0.0 0.0 0.0 1.0 0.1621
O21 O 0.1772 0.402 0.25 1.0 0.0001
O22 O 0.0 0.127 -0.25 1.0 0.1583
O31 O 0.0456 0.133 0.018 1.0 0.0253
O32 O 0.2317 0.394 0.020 1.0 0.0380
O33 O 0.1580 0.324 0.031 1.0 0.0380
O41 O 0.1993 0.175 0.017 1.0 0.0380
O42 O 0.0906 0.0 0.0 1.0 0.0380
O51 O 0.0847 0.096 0.25 1.0 0.0836
O52 O 0.2590 0.378 -0.25 1.0 0.0836
O53 O 0.1444 0.232 -0.25 1.0 0.0836
O61 O 0.1154 0.174 0.002 1.0 0.0380
O62 O 0.2865 0.5 0.0 1.0 0.0380




