data_Afghanite
_cell_length_a         12.761
_cell_length_b         12.761
_cell_length_c         21.416
_cell_angle_alpha     90
_cell_angle_beta      90
_cell_angle_gamma     120


# setting 
_symmetry_space_group_name_H-M 'P63mc'


loop_
_symmetry_equiv_pos_as_xyz
'x,y,z'
'x-y,x,z+1/2'
'y,-x+y,z+1/2'
'-y,x-y,z'
'-x+y,-x,z'
'-x,-y,z+1/2'
'-x+y,y,z'
'x,x-y,z'
'-y,-x,z'
'y,x,z+1/2'
'x-y,-y,z+1/2'
'-x,-x+y,z+1/2'


loop_
_atom_site_label
_atom_site_type_symbol
_atom_site_fract_x
_atom_site_fract_y
_atom_site_fract_z
_atom_site_occupancy
_atom_site_U_iso_or_equiv
Na1 Na 0.2160 -0.2160 0.3750 0.90 0.0291
Na2 Na 0.2238 -0.2238 0.1346 0.66 0.0386
Na3 Na 0.4707 0.5293 0.2482 0.85 0.0328
Na4 Na 0.4907 -0.4907 0.0064 0.83 0.0370
Na5 Na 0.4034 0.2017 0.6157 0.33 0.0360
Na6 Na 0.34 0.17 0.89 0.10 0.0314
Ca1 Ca 0.3333 0.6667 0.6226 1.0 0.0186
Ca2 Ca 0.3333 0.6667 0.8663 1.0 0.0285
Ca3 Ca 0.0 0.0 0.2594 1.0 0.0111
Ca4 Ca 0.0 0.0 0.0079 1.0 0.0128
Ca5 Ca 0.5162 0.0325 -0.0015 0.16 0.0046
Ca6 Ca 0.5051 0.0101 0.7422 0.14 0.0110
Si1 Si 0.2586 0.0061 0.5020 0.5 0.0075
Si2 Si 0.0746 0.4100 0.8758 0.5 0.0152
Si3 Si 0.0001 0.2572 0.2517 0.5 0.0092
Si4 Si 0.0770 0.4091 0.6281 0.5 0.0071
Al1 Al 0.2586 0.0061 0.5020 0.5 0.0075
Al2 Al 0.0746 0.4100 0.8758 0.5 0.0152
Al3 Al 0.0001 0.2572 0.2517 0.5 0.0092
Al4 Al 0.0770 0.4091 0.6281 0.5 0.0071
O1 O 0.3332 0.3169 0.6838 1.0 0.0246
O2 O 0.3481 0.3434 0.8107 1.0 0.0063
O3 O 0.1186 -0.1186 0.7533 1.0 0.0239
O4 O 0.3286 0.3309 0.4326 1.0 0.0225
O5 O 0.3453 0.3363 0.0586 1.0 0.0227
O6 O 0.1184 -0.1184 0.0009 1.0 0.0016
O7 O 0.1101 -0.1101 0.4935 1.0 0.0513
O8 O 0.1132 -0.1132 0.2445 1.0 0.0155
O9 O 0.4490 -0.4490 0.6177 1.0 0.0151
O10 O 0.4589 -0.4589 0.8715 1.0 0.0191
O11 O 0.2120 -0.2120 0.6247 1.0 0.0250
O12 O 0.2222 -0.2222 0.8677 1.0 0.0111
S1 S 0.3333 0.6667 0.2507 0.90 0.0333
S2 S 0.3333 0.6667 0.4598 1.0 0.0282
S3 S 0.3333 0.6667 0.0359 0.75 0.0275
O13 O 0.3333 0.6667 0.9688 1.0 0.0465
O15 O 0.6116 -0.6116 -0.0661 1.0 0.0548
O17 O 0.561 0.281 0.719 0.27 0.0284
O18 O 0.545 0.272 0.780 0.33 0.0351
O19 O 0.603 0.206 0.551 0.41 0.0290
O20 O 0.613 0.227 0.802 0.33 0.0581
Cl Cl 0.0 0.0 0.1257 1.0 0.0393
O21 O 0.636 0.272 0.0163 0.33 0.0437
H2O14 O2-(H2O) 0.3333 0.6667 0.7474 1.0 0.0419
H2O16 O2-(H2O) 0.0 0.0 0.3766 1.0 0.0746




