data_AlPO-14_Calcined
_cell_length_a        9.7041
_cell_length_b        9.7361
_cell_length_c        10.202
_cell_angle_alpha    77.811
_cell_angle_beta     77.504
_cell_angle_gamma    87.691


# setting 
# _symmetry_space_group_name_H-M 'P-1'


loop_
_symmetry_equiv_pos_as_xyz
'x,y,z'
'-x,-y,-z'


loop_
_atom_site_label
_atom_site_type_sumbol
_atom_site_fract_x
_atom_site_fract_y
_atom_site_fract_z
_atom_site_occupancy
_atom_site_U_iso_or_equiv
Al1 Al 0.2730 0.7425 0.8445 1.0 0.0100
Al2 Al 0.4322 0.2004 0.9080 1.0 0.0100
Al3 Al 0.8141 0.0506 0.6558 1.0 0.0100
Al4 Al 0.0699 0.4732 0.2015 1.0 0.0100
P1 P 0.5246 0.9351 0.7996 1.0 0.0130
P2 P 0.2010 0.4282 0.9010 1.0 0.0130
P3 P 0.9511 0.1884 0.3437 1.0 0.0130
P4 P 0.7520 0.2740 0.8400 1.0 0.0130
O1 O 0.0766 0.4368 0.8348 1.0 0.0100
O2 O 0.3024 0.3126 0.8628 1.0 0.0100
O3 O 0.7757 0.2329 -0.0177 1.0 0.0100
O4 O 0.4396 0.6420 0.8307 1.0 0.0100
O5 O 0.4431 0.8367 0.7641 1.0 0.0100
O6 O 0.2989 0.5607 0.8480 1.0 0.0100
O7 O 0.0245 0.3297 0.3318 1.0 0.0100
O8 O 0.8582 0.1495 0.4864 1.0 0.0100
O9 O 0.9407 0.9216 0.6755 1.0 0.0100
O10 O 0.1609 0.4094 0.0595 1.0 0.0100
O11 O 0.8659 0.1898 0.2366 1.0 0.0100
O12 O 0.6009 0.2911 0.8439 1.0 0.0100
O13 O 0.8048 0.1556 0.7691 1.0 0.0100
O14 O 0.3519 0.0299 0.3184 1.0 0.0100
O15 O 0.4183 0.1391 0.0786 1.0 0.0100
O16 O 0.8210 0.4141 0.7623 1.0 0.0100




