data_AlPO-57
_cell_length_a        13.3538
_cell_length_b        13.3538
_cell_length_c        25.5664
_cell_angle_alpha    90.00
_cell_angle_beta     90.00
_cell_angle_gamma    120.00


# setting 
_symmetry_space_group_name_H-M 'P-3c1'


loop_
_symmetry_equiv_pos_as_xyz
'x, y, z'
'-y, x-y, z'
'-x+y, -x, z'
'x-y, -y, -z+1/2'
'-x, -x+y, -z+1/2'
'y, x, -z+1/2'
'-x, -y, -z'
'y, -x+y, -z'
'x-y, x, -z'
'-x+y, y, z+1/2'
'x, x-y, z+1/2'
'-y, -x, z+1/2'

loop_
_atom_site_label
_atom_site_type_symbol
_atom_site_fract_x
_atom_site_fract_y
_atom_site_fract_z
_atom_site_occupancy
_atom_site_U_iso_or_equiv
Al1 Al 0.4363 0.0971 0.04256 0.681 0.0237
Al2 Al 0.4280 0.0958 0.66266 0.706 0.0237
Al3 Al 0.2386 0.0 0.25 0.768 0.0237
Zn1 Zn 0.4363 0.0971 0.04256 0.319 0.0237
Zn2 Zn 0.4280 0.0958 0.66266 0.294 0.0237
Zn3 Zn 0.2386 0.0 0.25 0.232 0.0237
P1 P 0.4328 0.0957 0.16184 1.0 0.0237
P2 P 0.4299 0.1016 0.53896 1.0 0.0237
P3 P 0.2439 0.0 0.75 1.0 0.0237
O1 O 0.3419 -0.0012 0.5066 1.0 0.0380
O2 O 0.5838 0.1398 0.0281 1.0 0.0380
O3 O 0.4061 0.2097 0.0270 1.0 0.0380
O4 O 0.3927 0.0454 0.1075 1.0 0.0380
O5 O 0.2179 0.1222 0.2573 1.0 0.0380
O6 O 0.5462 0.0744 0.6810 1.0 0.0380
O7 O 0.4712 0.2470 0.6692 1.0 0.0380
O8 O 0.2963 0.0046 0.6973 1.0 0.0380
O9 O 0.3333 0.0179 0.1969 1.0 0.0380
O10 O 0.3898 0.0665 0.59434 1.0 0.0380
N1 N 0.0698 -0.0326 0.1039 0.33333 0.0500
C11 C 0.0534 0.0504 0.0703 0.5 0.0500
C12 C 0.077 -0.132 0.0785 0.5 0.0500
C13 C -0.0251 -0.0739 0.1441 0.444 0.0500
C14 C 0.1889 0.0149 0.1281 0.444 0.0500
C15 C -0.1442 -0.093 0.1345 0.444 0.0500
C16 C 0.110 0.1764 0.0846 0.444 0.0500
N2 N 0.3242 0.6893 0.1758 0.3333 0.0500
C21 C 0.243 0.739 0.1751 0.5 0.0500
C22 C 0.4097 0.7527 0.1308 0.5 0.0500
C23 C 0.237 0.5613 0.1672 0.444 0.0500
C24 C 0.3783 0.712 0.2298 0.444 0.0500
C25 C 0.227 0.754 0.1173 0.444 0.0500
C26 C 0.189 0.540 0.1120 0.444 0.0500




