data_AlPO-H2
_cell_length_a         9.486
_cell_length_b         9.914
_cell_length_c         8.126
_cell_angle_alpha     90
_cell_angle_beta      90
_cell_angle_gamma     121.49


# setting 
_symmetry_space_group_name_H-M 'P1121'


loop_
_symmetry_equiv_pos_as_xyz
'x,y,z'
'-x,-y,z+1/2'


loop_
_atom_site_label
_atom_site_type_symbol
_atom_site_fract_x
_atom_site_fract_y
_atom_site_fract_z
_atom_site_occupancy
_atom_site_U_iso_or_equiv
AL1 Al 0.0 0.215 0.139 1.0 0.0160
AL2 Al 0.347 0.303 0.664 1.0 0.0160
AL3 Al 0.348 0.037 0.134 1.0 0.0160
P1 P 0.007 0.094 0.526 1.0 0.0160
P2 P 0.366 0.349 0.064 1.0 0.0160
P3 P 0.373 0.038 0.537 1.0 0.0160
O1 O 0.014 0.067 0.013 1.0 0.0260
O2 O 0.0 0.116 0.337 1.0 0.0260
O3 O 0.229 0.347 0.165 1.0 0.0260
O4 O 0.419 0.234 0.112 1.0 0.0260
O5 O 0.352 0.333 0.876 1.0 0.0260
O6 O 0.512 0.523 0.067 1.0 0.0260
O7 O 0.16 0.254 0.576 1.0 0.0260
O8 O -0.229 0.112 0.111 1.0 0.0260
O9 O 0.406 0.166 0.661 1.0 0.0260
O10 O 0.362 0.035 0.348 1.0 0.0260
O11 O 0.525 0.038 0.605 1.0 0.0260
O12 O -0.138 0.097 0.608 1.0 0.0260
H2O1 O2-(H2O) 0.016 0.277 -0.097 1.0 0.0230
H2O2 O2-(H2O) -0.045 0.384 0.196 1.0 0.0230
H2O3 O2-(H2O) 0.262 0.615 0.365 1.0 0.0330
H2O4 O2-(H2O) 0.752 0.408 0.265 1.0 0.0330




