data_AlPO-C_Dehydrated
_cell_length_a         19.816
_cell_length_b         10.047
_cell_length_c         8.935
_cell_angle_alpha     90
_cell_angle_beta      90
_cell_angle_gamma     90


# setting 
_symmetry_space_group_name_H-M 'Pbca'


loop_
_symmetry_equiv_pos_as_xyz
'x,y,z'
'x+1/2,-y+1/2,-z'
'-x,y+1/2,-z+1/2'
'-x+1/2,-y,z+1/2'
'-x,-y,-z'
'-x-1/2,y-1/2,z'
'x,-y-1/2,z-1/2'
'x-1/2,y,-z-1/2'


loop_
_atom_site_label
_atom_site_type_symbol
_atom_site_fract_x
_atom_site_fract_y
_atom_site_fract_z
_atom_site_occupancy
_atom_site_U_iso_or_equiv
AL1 Al 0.455 0.160 0.360 1.0 0.0038
AL2 Al 0.297 0.423 0.197 1.0 0.0190
P1 P 0.456 0.424 0.206 1.0 0.0342
P2 P 0.293 0.145 0.346 1.0 0.0038
O1 O 0.384 0.465 0.222 1.0 0.1140
O2 O 0.465 0.143 0.546 1.0 0.0089
O3 O 0.500 0.539 0.238 1.0 0.0190
O4 O 0.476 0.317 0.323 1.0 0.0063
O5 O 0.280 0.110 0.506 1.0 0.0165
O6 O 0.370 0.124 0.313 1.0 0.0646
O7 O 0.278 0.284 0.297 1.0 0.0013
O8 O 0.249 0.560 0.241 1.0 0.0418




