data_AlPO-D
_cell_length_a         19.187
_cell_length_b         8.576
_cell_length_c         9.804
_cell_angle_alpha     90
_cell_angle_beta      90
_cell_angle_gamma     90


# setting 
# _symmetry_space_group_name_H-M 'Pca21'


loop_
_symmetry_equiv_pos_as_xyz
'x,y,z'
'-x,-y,z+1/2'
'-x+1/2,y,z+1/2'
'x+1/2,-y,z'


loop_
_atom_site_label
_atom_site_type_sumbol
_atom_site_fract_x
_atom_site_fract_y
_atom_site_fract_z
_atom_site_occupancy
_atom_site_U_iso_or_equiv
AL11 Al 0.531 0.065 0.133 1.0 0.1153
AL12 Al 0.572 0.574 0.385 1.0 0.0507
AL21 Al 0.721 0.074 0.320 1.0 0.0025
AL22 Al 0.681 0.572 0.026 1.0 0.0101
P11 P 0.574 -0.031 0.421 1.0 0.0874
P12 P 0.529 0.473 0.107 1.0 0.0317
P21 P 0.680 -0.051 0.040 1.0 0.0101
P22 P 0.724 0.453 0.298 1.0 0.0025
O11 O 0.645 0.035 0.406 1.0 0.0165
O12 O 0.593 0.526 0.031 1.0 0.0000
O21 O 0.531 0.284 0.130 1.0 0.1102
O22 O 0.584 0.784 0.418 1.0 0.0507
O31 O 0.540 0.017 0.553 1.0 0.0811
O32 O 0.469 0.518 0.019 1.0 0.0101
O41 O 0.532 0.018 0.302 1.0 0.0646
O42 O 0.524 0.557 0.238 1.0 0.0101
O51 O 0.691 0.773 0.060 1.0 0.0507
O52 O 0.734 0.278 0.320 1.0 0.1013
O61 O 0.601 -0.015 0.045 1.0 0.0089
O62 O 0.655 0.498 0.361 1.0 0.1191
O71 O 0.716 0.025 0.154 1.0 0.0101
O72 O 0.724 0.478 0.150 1.0 0.0101
O81 O 0.789 -0.010 0.405 1.0 0.0101
O82 O 0.719 0.539 0.869 1.0 0.0785




