data_Quinuclidine_AlPO-16
_cell_length_a         13.3832
_cell_length_b         13.3832
_cell_length_c         13.3832
_cell_angle_alpha     90
_cell_angle_beta      90
_cell_angle_gamma     90


# setting 
# _symmetry_space_group_name_H-M 'F23'


loop_
_symmetry_equiv_pos_as_xyz
'x,y,z'
'z,x,y'
'y,z,x'
'-y,-z,x'
'z,-x,-y'
'-y,z,-x'
'-z,-x,y'
'-z,x,-y'
'y,-z,-x'
'x,-y,-z'
'-x,y,-z'
'-x,-y,z'
'x,y+1/2,z+1/2'
'z,x+1/2,y+1/2'
'y,z+1/2,x+1/2'
'-y,-z+1/2,x+1/2'
'z,-x+1/2,-y+1/2'
'-y,z+1/2,-x+1/2'
'-z,-x+1/2,y+1/2'
'-z,x+1/2,-y+1/2'
'y,-z+1/2,-x+1/2'
'x,-y+1/2,-z+1/2'
'-x,y+1/2,-z+1/2'
'-x,-y+1/2,z+1/2'
'x+1/2,y,z+1/2'
'z+1/2,x,y+1/2'
'y+1/2,z,x+1/2'
'-y+1/2,-z,x+1/2'
'z+1/2,-x,-y+1/2'
'-y+1/2,z,-x+1/2'
'-z+1/2,-x,y+1/2'
'-z+1/2,x,-y+1/2'
'y+1/2,-z,-x+1/2'
'x+1/2,-y,-z+1/2'
'-x+1/2,y,-z+1/2'
'-x+1/2,-y,z+1/2'
'x+1/2,y+1/2,z'
'z+1/2,x+1/2,y'
'y+1/2,z+1/2,x'
'-y+1/2,-z+1/2,x'
'z+1/2,-x+1/2,-y'
'-y+1/2,z+1/2,-x'
'-z+1/2,-x+1/2,y'
'-z+1/2,x+1/2,-y'
'y+1/2,-z+1/2,-x'
'x+1/2,-y+1/2,-z'
'-x+1/2,y+1/2,-z'
'-x+1/2,-y+1/2,z'


loop_
_atom_site_label
_atom_site_type_sumbol
_atom_site_fract_x
_atom_site_fract_y
_atom_site_fract_z
_atom_site_occupancy
_atom_site_U_iso_or_equiv
AL1 Al 0.1186 0.1186 0.1186 1.0 0.0811
P1 P -0.1116 0.1116 0.1116 1.0 0.0659
P2 P 0.2500 0.2500 0.2500 1.0 0.0557
AL2 Al -0.2500 0.2500 0.2500 1.0 0.0317
O1 O -0.0078 0.1285 0.1495 1.0 0.0380
O2 O 0.1915 0.1915 0.1915 1.0 0.0633
O3 O -0.1704 0.1704 0.1704 1.0 0.1013
N1 N 0.0560 0.4329 0.0424 0.0833 0.0760
C1 C 0.0056 0.3916 -0.0462 0.0833 0.0760
C2 C -0.0601 0.4680 -0.0973 0.0833 0.0760
C3 C 0.1159 0.5193 0.0103 0.0833 0.0760
C4 C 0.0529 0.5988 -0.0393 0.0833 0.0760
C5 C -0.0214 0.4689 0.1118 0.0833 0.0760
C6 C -0.0878 0.5472 0.0646 0.0833 0.0760
C7 C -0.0552 0.5662 -0.0418 0.0833 0.0760
H11 H 0.0566 0.3668 -0.0939 0.0833 0.0887
H12 H -0.0351 0.3331 -0.0261 0.0833 0.0887
H21 H -0.0382 0.4774 -0.1673 0.0833 0.0887
H22 H -0.1300 0.4437 -0.0995 0.0833 0.0887
H31 H 0.1506 0.5481 0.0691 0.0833 0.0887
H32 H 0.1686 0.4965 -0.0364 0.0833 0.0887
H41 H 0.0592 0.6627 -0.0025 0.0833 0.0887
H42 H 0.0772 0.6110 -0.1081 0.0833 0.0887
H51 H -0.0626 0.4116 0.1344 0.0833 0.0887
H52 H 0.0122 0.4970 0.1722 0.0833 0.0887
H61 H -0.1583 0.5246 0.0658 0.0833 0.0887
H62 H -0.0845 0.6099 0.1036 0.0833 0.0887
H7 H -0.0978 0.6173 -0.0741 0.0833 0.0887




