data_Di-n-propylamine_SAPO-31
_cell_length_a         20.839
_cell_length_b         20.839
_cell_length_c         5.041
_cell_angle_alpha     90
_cell_angle_beta      90
_cell_angle_gamma     120


# setting H
_symmetry_space_group_name_H-M 'R-3'


loop_
_symmetry_equiv_pos_as_xyz
'x,y,z'
'-y,x-y,z'
'-x+y,-x,z'
'-x,-y,-z'
'y,-x+y,-z'
'x-y,x,-z'
'x+1/3,y+2/3,z+2/3'
'-y+1/3,x-y+2/3,z+2/3'
'-x+y+1/3,-x+2/3,z+2/3'
'-x+1/3,-y+2/3,-z+2/3'
'y+1/3,-x+y+2/3,-z+2/3'
'x-y+1/3,x+2/3,-z+2/3'
'x+2/3,y+1/3,z+1/3'
'-y+2/3,x-y+1/3,z+1/3'
'-x+y+2/3,-x+1/3,z+1/3'
'-x+2/3,-y+1/3,-z+1/3'
'y+2/3,-x+y+1/3,-z+1/3'
'x-y+2/3,x+1/3,-z+1/3'


loop_
_atom_site_label
_atom_site_type_symbol
_atom_site_fract_x
_atom_site_fract_y
_atom_site_fract_z
_atom_site_occupancy
_atom_site_U_iso_or_equiv
Al Al 0.61736 0.08455 0.0381 0.984 0.0239
P P 0.47126 0.08774 0.1138 0.926 0.0166
O1 O 0.55134 0.10711 0.1317 1.0 0.0380
O2 O 0.42390 0.00893 0.0133 1.0 0.0420
O3 O 0.44586 0.09533 0.3880 1.0 0.0420
O4 O 0.46468 0.14061 0.9208 1.0 0.0420
C1 C 0.046 0.013 0.111 0.46 0.2000
C2 C 0.064 0.029 0.388 0.25 0.2000
C3 C 0.0 0.0 0.30 0.33 0.2000




