data_AlPO-59
_cell_length_a        13.3756
_cell_length_b        13.3756
_cell_length_c        36.2118
_cell_angle_alpha    90.00
_cell_angle_beta     90.00
_cell_angle_gamma    120.00


# setting 
# _symmetry_space_group_name_H-M 'P-3m1'


loop_
_symmetry_equiv_pos_as_xyz
'x,y,z'
'-y,x-y,z'
'-x+y,-x,z'
'x-y,-y,-z'
'-x,-x+y,-z'
'y,x,-z'
'-x,-y,-z'
'y,-x+y,-z'
'x-y,x,-z'
'-x+y,y,z'
'x,x-y,z'
'-y,-x,z'


loop_
_atom_site_label
_atom_site_type_sumbol
_atom_site_fract_x
_atom_site_fract_y
_atom_site_fract_z
_atom_site_occupancy
_atom_site_U_iso_or_equiv
Al1 Al 0.2379 1.0027 0.45792 0.706 0.0225
Al2 Al 0.9106 0.5743 0.68438 0.706 0.0225
Al3 Al 0.4291 0.0976 0.60431 0.706 0.0225
Al4 Al 0.7625 0.0 0.25 0.706 0.0225
Zn1 Zn 0.2379 1.0027 0.45792 0.294 0.0225
Zn2 Zn 0.9106 0.5743 0.68438 0.294 0.0225
Zn3 Zn 0.4291 0.0976 0.60431 0.294 0.0225
Zn4 Zn 0.7625 0.0 0.25 0.294 0.0225
P1 P 0.9994 0.7605 1.04042 1.0 0.0244
P2 P 0.3302 0.8912 0.81043 1.0 0.0244
P3 P 0.5733 0.9079 0.90053 1.0 0.0244
P4 P 0.2450 0.0 0.25 1.0 0.0244
O1 O 0.3122 0.9978 0.28344 1.0 0.0409
O2 O 0.3001 0.9766 0.78957 1.0 0.0409
O3 O 0.2872 -0.0036 0.50254 1.0 0.0409
O4 O 0.7005 0.0145 1.07391 1.0 0.0409
O5 O 0.6633 0.0114 0.56906 1.0 0.0409
O6 O 0.7378 0.8831 1.05327 1.0 0.0409
O7 O 0.9275 0.5991 1.14921 1.0 0.0409
O8 O 0.9416 0.6178 0.63850 1.0 0.0409
O9 O 0.2228 0.4585 0.40484 1.0 0.0409
O10 O 0.9060 0.1163 0.54777 1.0 0.0409
O11 O 0.4462 0.5455 0.91200 1.0 0.0409
O12 O 0.2249 0.1028 0.2569 1.0 0.0409
O13 O 0.48316 0.23528 1.19932 1.0 0.0409
O14 O 0.5397 0.4731 0.69389 1.0 0.0409
N1 N 0.2932 0.5122 0.6703 0.3333 0.0410
C1A C 0.3958 0.6258 0.6697 0.46634 0.0410
C1B C 0.3263 0.4261 0.6787 0.46634 0.0410
C1C C 0.2369 0.4863 0.6345 0.46634 0.0410
C1D C 0.2149 0.5091 0.6984 0.41074 0.0410
C1E C 0.2567 0.5992 0.7261 0.46634 0.0410
N2 N 0.2824 0.6258 0.51845 0.3333 0.0410
C2A C 0.3481 0.7317 0.4975 0.46634 0.0410
C2B C 0.2912 0.6524 0.5575 0.41074 0.0410
C2C C 0.1620 0.570 0.5072 0.46634 0.0410
C2D C 0.3287 0.5499 0.5114 0.46634 0.0410
C2E C 0.2461 0.5595 0.58430 0.46634 0.0410
N3 N -0.0277 -0.0489 0.35458 0.3333 0.0410
C3A C -0.0714 -0.1728 0.3535 0.41074 0.0410
C3B C -0.1243 -0.0287 0.3576 0.46634 0.0410
C3C C 0.0362 0.0036 0.3211 0.46634 0.0410
C3D C 0.0478 0.0000 0.3863 0.46634 0.0410
C3E C 0.9073 -0.2292 0.3179 0.46634 0.0410




