data_AlPO-21
_cell_length_a        10.3307
_cell_length_b        17.5241
_cell_length_c        8.6757
_cell_angle_alpha    90.0
_cell_angle_beta     123.369
_cell_angle_gamma    90.0


# setting 
_symmetry_space_group_name_H-M 'P121/a1'


loop_
_symmetry_equiv_pos_as_xyz
'x,y,z'
'-x+1/2,y+1/2,-z'
'-x,-y,-z'
'x-1/2,-y-1/2,z'


loop_
_atom_site_label
_atom_site_type_symbol
_atom_site_fract_x
_atom_site_fract_y
_atom_site_fract_z
_atom_site_occupancy
_atom_site_U_iso_or_equiv
P1 P 0.1335 0.0708 0.9738 1.0 0.0073
P2 P 0.0269 0.2112 0.3235 1.0 0.0089
P3 P 0.4967 0.1646 0.7462 1.0 0.0082
Al1 Al 0.3082 0.1714 0.3192 1.0 0.0096
Al2 Al 0.3372 0.3892 0.9739 1.0 0.0077
Al3 Al 0.2057 0.2037 0.7707 1.0 0.0080
O1 O 0.3375 0.4885 0.0519 1.0 0.0106
O2 O 0.2331 0.0912 0.1807 1.0 0.0147
O3 O 0.421 0.2188 0.258 1.0 0.0142
O4 O 0.0904 0.1947 0.5237 1.0 0.0163
O5 O 0.0484 0.2523 0.7775 1.0 0.0119
O6 O 0.4254 0.1411 0.5439 1.0 0.0185
O7 O 0.4636 0.4153 0.9012 1.0 0.0108
O8 O 0.1819 0.1203 0.8696 1.0 0.0137
O9 O 0.3221 0.2905 0.8647 1.0 0.0137
O10 O 0.3759 0.1525 0.7924 1.0 0.0128
O11 O 0.1316 0.3898 0.8632 1.0 0.0125
O12 O 0.1589 0.2283 0.2955 1.0 0.0168
O13 O 0.4353 0.3575 0.2081 1.0 0.0142
N1 N 0.2155 0.4898 0.2852 0.71 0.0388
C1 C 0.3305 0.4857 0.4786 1.425 0.1608
C2 C 0.0868 0.4358 0.2039 1.295 0.0936
C3 C 0.177 0.4828 0.362 0.22 0.0000
C4 C 0.125 0.4639 0.477 0.412 0.0900
H1 H 0.381 0.286 0.854 1.0 0.0256




