data_Mg-BCTT
_cell_length_a        8.957
_cell_length_b        8.957
_cell_length_c        5.281
_cell_angle_alpha    90.0
_cell_angle_beta     90.0
_cell_angle_gamma    90.0


# setting 
_symmetry_space_group_name_H-M 'I4mm'


loop_
_symmetry_equiv_pos_as_xyz
'x,y,z'
'-y,x,z'
'y,-x,z'
'-x,-y,z'
'-x,y,z'
'x,-y,z'
'-y,-x,z'
'y,x,z'
'x+1/2,y+1/2,z+1/2'
'-y+1/2,x+1/2,z+1/2'
'y+1/2,-x+1/2,z+1/2'
'-x+1/2,-y+1/2,z+1/2'
'-x+1/2,y+1/2,z+1/2'
'x+1/2,-y+1/2,z+1/2'
'-y+1/2,-x+1/2,z+1/2'
'y+1/2,x+1/2,z+1/2'


loop_
_atom_site_label
_atom_site_type_symbol
_atom_site_fract_x
_atom_site_fract_y
_atom_site_fract_z
_atom_site_occupancy
_atom_site_U_iso_or_equiv
Si1 Si 0.1805 0.1805 0.0000 0.715 0.0100
Mg1 Mg 0.1805 0.1805 0.0000 0.285 0.0100
O1 O 0.2144 0.0000 0.0695 1.00 0.0200
O2 O 0.2889 0.2889 0.1914 1.00 0.0200
K1 K 0.0000 0.5000 0.2960 0.64 0.0300
K2 K 0.0000 0.0000 0.4979 1.00 0.0300




