data_Beta_polymorph_A_SiO2_Framework
_cell_length_a         12.66139
_cell_length_b         12.66139
_cell_length_c         26.40612
_cell_angle_alpha     90
_cell_angle_beta      90
_cell_angle_gamma     90


# setting 
# _symmetry_space_group_name_H-M 'P4122'


loop_
_symmetry_equiv_pos_as_xyz
'x,y,z'
'-y,x,z+1/4'
'y,-x,z+3/4'
'x,-y,-z+1/2'
'-x,y,-z'
'-x,-y,z+1/2'
'y,x,-z+3/4'
'-y,-x,-z+1/4'


loop_
_atom_site_label
_atom_site_type_sumbol
_atom_site_fract_x
_atom_site_fract_y
_atom_site_fract_z
_atom_site_occupancy
_atom_site_U_iso_or_equiv
SI1 Si 0.33694 0.79277 0.05619 1 0.0000
SI2 Si 0.33711 0.54031 0.05606 1 0.0000
SI3 Si 0.71647 0.79300 0.05872 1 0.0000
SI4 Si 0.71656 0.54076 0.05884 1 0.0000
SI5 Si 0.95425 0.79364 0.05555 1 0.0000
SI6 Si 0.95434 0.54040 0.05556 1 0.0000
SI7 Si 0.14278 0.85722 0.12500 1 0.0000
SI8 Si 0.52836 0.85702 0.12552 1 0.0000
SI9 Si 0.52842 0.47158 0.12500 1 0.0000
O10 O 0.33623 0.66652 0.06515 1 0.0000
O11 O 0.33454 0.81732 -0.00385 1 0.0000
O12 O 0.23433 0.84457 0.08279 1 0.0000
O13 O 0.44268 0.84276 0.08069 1 0.0000
O20 O 0.33456 0.51612 -0.00402 1 0.0000
O21 O 0.23464 0.48822 0.08264 1 0.0000
O22 O 0.44301 0.49038 0.08043 1 0.0000
O30 O 0.71891 0.66690 0.06809 1 0.0000
O31 O 0.83544 0.83902 0.06074 1 0.0000
O32 O 0.64609 0.84874 0.10222 1 0.0000
O40 O 0.83559 0.49490 0.06084 1 0.0000
O41 O 0.64627 0.48518 0.10242 1 0.0000
O50 O 1.00000 0.82149 0.00000 1 0.0000
O51 O 0.95304 0.66702 0.06321 1 0.0000
O52 O 1.02844 0.84708 0.09824 1 0.0000
O60 O 1.00000 0.51256 0.00000 1 0.0000
O61 O 1.02874 0.48708 0.09821 1 0.0000




