data_FOS-5_Beta_polymorph_C
_cell_length_a        25.990
_cell_length_b        25.990
_cell_length_c        27.271
_cell_angle_alpha    90.0
_cell_angle_beta     90.0
_cell_angle_gamma    90.0


# setting 2
_symmetry_space_group_name_H-M 'I41/amd'


loop_
_symmetry_equiv_pos_as_xyz
'x,y,z'
'-y+1/4,x+3/4,z+1/4'
'y+1/4,-x+1/4,z+3/4'
'x,-y,-z'
'-x,y+1/2,-z'
'-x,-y+1/2,z'
'y+1/4,x+3/4,-z+1/4'
'-y+1/4,-x+1/4,-z+3/4'
'-x,-y,-z'
'y-1/4,-x-3/4,-z-1/4'
'-y-1/4,x-1/4,-z-3/4'
'-x,y,z'
'x,-y-1/2,z'
'x,y-1/2,-z'
'-y-1/4,-x-3/4,z-1/4'
'y-1/4,x-1/4,z-3/4'
'x+1/2,y+1/2,z+1/2'
'-y+3/4,x+5/4,z+3/4'
'y+3/4,-x+3/4,z+5/4'
'x+1/2,-y+1/2,-z+1/2'
'-x+1/2,y+1,-z+1/2'
'-x+1/2,-y+1,z+1/2'
'y+3/4,x+5/4,-z+3/4'
'-y+3/4,-x+3/4,-z+5/4'
'-x+1/2,-y+1/2,-z+1/2'
'y+1/4,-x-1/4,-z+1/4'
'-y+1/4,x+1/4,-z-1/4'
'-x+1/2,y+1/2,z+1/2'
'x+1/2,-y,z+1/2'
'x+1/2,y,-z+1/2'
'-y+1/4,-x-1/4,z+1/4'
'y+1/4,x+1/4,z-1/4'


loop_
_atom_site_label
_atom_site_type_symbol
_atom_site_fract_x
_atom_site_fract_y
_atom_site_fract_z
_atom_site_occupancy
_atom_site_U_iso_or_equiv
Ge1 Ge 0.06080 0.56726 0.05003 1.0 0.0248
Ge2 Ge 0.18313 0.31110 0.20106 1.0 0.0238
Ge3 Ge 0.06127 0.44742 0.06418 1.0 0.0260
Ge4 Ge 0.16210 0.41210 0.37500 1.0 0.0242
Ge5 Ge 0.19686 0.31144 0.31554 1.0 0.0232
Ge6 Ge 0.15531 0.40669 0.13668 1.0 0.0262
Ge7 Ge 0.24081 0.44472 0.05716 1.0 0.0277
Ge8 Ge 0.23811 0.56364 0.05594 1.0 0.0258
Ge9 Ge 0.14778 0.60222 0.12500 1.0 0.0286
O1 O 0.14210 0.34760 0.16490 1.0 0.0350
O2 O 0.16270 0.31660 0.26330 1.0 0.0350
O3 O 0.09690 0.61140 0.08470 1.0 0.0310
O4 O 0.06590 0.58900 -0.00980 1.0 0.0420
O5 O 0.19400 0.25000 0.34080 1.0 0.0360
O6 O 0.21760 0.41700 0.00220 1.0 0.0320
O7 O 0.08870 0.50680 0.06120 1.0 0.0450
O8 O 0.17240 0.25000 0.17770 1.0 0.0390
O9 O 0.00000 0.44600 0.09020 1.0 0.0420
O10 O 0.16620 0.44850 0.18530 1.0 0.0331
O11 O 0.20300 0.60860 0.09140 1.0 0.0331
O12 O 0.09620 0.41360 0.10910 1.0 0.0390
O13 O 0.24260 0.33790 0.19140 1.0 0.0439
O14 O 0.20720 0.40180 0.09830 1.0 0.0360
O15 O 0.00000 0.57460 0.07410 1.0 0.0439
O16 O 0.17980 0.44460 0.32170 1.0 0.0380
O17 O 0.16840 0.34710 0.36250 1.0 0.0339
O18 O 0.21620 0.50380 0.07760 1.0 0.0339
N1 N 0.24780 0.25000 0.00390 1.0 0.0840
C1 C 0.23600 0.29700 0.03400 1.0 0.0170
C2 C 0.26900 0.25000 -0.04700 1.0 0.0260
N2 N 0.14760 0.25000 0.00900 1.0 0.1050
C3 C 0.17600 0.25000 -0.03700 1.0 0.5104
C4 C 0.16200 0.30200 0.02800 1.0 0.2102
N3 N 0.35190 0.25000 0.00200 1.0 0.1240
C5 C 0.34000 0.30300 0.02400 1.0 0.2900
C6 C 0.36100 0.25000 -0.05000 1.0 0.1900
OW1 O2-(H2O) 0.00000 0.50000 0.00000 1.0 0.0320
OW2 O2-(H2O) 0.25000 0.25000 0.25000 1.0 0.0331
OW3 O2-(H2O) 0.27690 0.50000 0.00000 1.0 0.0629
OW4 O2-(H2O) 0.00000 0.25000 -0.12500 1.0 0.2495




