data_ITQ-17_Beta_polymorph_C
_cell_length_a        12.823
_cell_length_b        12.823
_cell_length_c        13.345
_cell_angle_alpha    90.0
_cell_angle_beta     90.0
_cell_angle_gamma    90.0


# setting 
# _symmetry_space_group_name_H-M 'P42/mmc'


loop_
_symmetry_equiv_pos_as_xyz
'x,y,z'
'-y,x,z+1/2'
'y,-x,z+1/2'
'x,-y,-z'
'-x,y,-z'
'-x,-y,z'
'y,x,-z+1/2'
'-y,-x,-z+1/2'
'-x,-y,-z'
'y,-x,-z-1/2'
'-y,x,-z-1/2'
'-x,y,z'
'x,-y,z'
'x,y,-z'
'-y,-x,z-1/2'
'y,x,z-1/2'


loop_
_atom_site_label
_atom_site_type_sumbol
_atom_site_fract_x
_atom_site_fract_y
_atom_site_fract_z
_atom_site_occupancy
_atom_site_U_iso_or_equiv
Si1 Si 0.3777 0.1259 0.1143 0.54 0.0304
Ge1 Ge 0.3777 0.1259 0.1143 0.46 0.0304
Si2 Si 0.1915 0.1915 0.2500 0.72 0.0304
Ge2 Ge 0.1915 0.1915 0.2500 0.28 0.0304
Si3 Si 0.0000 0.1229 0.1160 0.77 0.0304
Ge3 Ge 0.0000 0.1229 0.1160 0.23 0.0304
O1 O 0.0000 0.0000 0.1303 1.0 0.0304
O2 O 0.0994 0.1764 0.1705 1.0 0.0304
O3 O 0.3486 0.0000 0.1278 1.0 0.0304
O4 O 0.5000 0.1481 0.1555 1.0 0.0304
O5 O 0.3010 0.1772 0.1954 1.0 0.0304
O6 O 0.3543 0.1583 0.0000 1.0 0.0304
O7 O 0.0000 0.1635 0.0000 1.0 0.0304




