data_Beryllium-10
_cell_length_a        13.957
_cell_length_b        14.194
_cell_length_c        34.923
_cell_angle_alpha    90.00
_cell_angle_beta     89.970
_cell_angle_gamma    90.00


# setting 
_symmetry_space_group_name_H-M 'P121/m1'


loop_
_symmetry_equiv_pos_as_xyz
'x,y,z'
'-x,y+1/2,-z'
'-x,-y,-z'
'x,-y-1/2,z'


loop_
_atom_site_label
_atom_site_type_symbol
_atom_site_fract_x
_atom_site_fract_y
_atom_site_fract_z
_atom_site_occupancy
_atom_site_U_iso_or_equiv
Be1 Be 0.62377 0.75000 0.41709 0.5460 0.0285
BeN1 Be 0.4896 0.41520 0.24239 1.0000 0.0108
BeN2 Be -0.0094 0.41500 0.25746 1.0000 0.0144
BeN3 Be 0.7843 0.25000 -0.00828 1.0000 0.0134
BeN4 Be 0.7144 0.75000 0.49179 1.0000 0.0100
Be2 Be 0.61772 0.35478 0.30594 0.5870 0.0287
Be3 Be 0.33971 0.35111 0.18873 0.5810 0.0305
Be4 Be -0.16022 0.35111 0.31131 0.5840 0.0301
Be5 Be 0.33607 0.75000 0.07758 0.5600 0.0325
Be6 Be 0.11800 0.35512 0.19402 0.5740 0.0299
Be7 Be 0.87579 0.25000 -0.08295 0.6020 0.0286
Be8 Be -0.16367 0.75000 0.42248 0.6230 0.0306
Be9 Be -0.02704 0.49683 0.18010 0.5590 0.0305
Be10 Be 0.47271 0.49688 0.31977 0.5460 0.0317
Be11 Be 0.49290 0.48188 0.16212 0.5200 0.0318
Be12 Be -0.00743 0.48213 0.33789 0.5210 0.0312
Be13 Be 0.75111 0.35245 0.06336 0.5950 0.0286
Be14 Be 0.25087 0.35292 0.43665 0.5880 0.0298
Be15 Be 0.62821 0.49126 0.10080 0.7540 0.0295
Be16 Be -0.02963 0.64709 0.12364 0.7723 0.0279
Be17 Be 0.33236 0.49174 0.38092 0.7500 0.0344
Be18 Be -0.16777 0.49179 0.11900 0.7670 0.0374
Be19 Be -0.00601 0.64452 0.38818 0.7580 0.0370
Be20 Be 0.47026 0.64657 0.37645 0.8066 0.0267
Be21 Be 0.12789 0.49163 0.39921 0.7730 0.0313
Be22 Be 0.49430 0.64491 0.11178 0.8032 0.0343
O1 O 0.3159 0.75000 0.03188 1.0000 0.1191
O2 O 0.2346 0.72320 0.09929 0.5000 0.0351
O3 O 0.3962 0.65680 0.08823 1.0000 0.0951
O4 O 0.5430 0.75000 0.11848 1.0000 0.0410
O5 O 0.4842 0.59480 0.15301 1.0000 0.0597
O6 O 0.5679 0.58210 0.08417 1.0000 0.0514
O8 O 0.6581 0.42630 0.06282 1.0000 0.0521
O9 O 0.7934 0.34180 0.01955 1.0000 0.0664
O10 O 0.8359 0.39760 0.09088 1.0000 0.0724
O11 O 0.7194 0.25000 0.07904 1.0000 0.0458
O12 O 0.5593 0.42980 0.12940 1.0000 0.0666
O13 O 0.3835 0.43340 0.15960 1.0000 0.0505
O14 O 0.3398 0.25000 0.16782 1.0000 0.0369
O15 O 0.4005 0.34980 0.22923 1.0000 0.0409
O16 O 0.5368 0.46750 0.20498 1.0000 0.0565
O17 O 0.5704 0.34970 0.26217 1.0000 0.0410
O18 O 0.5630 0.43230 0.33269 1.0000 0.0567
O19 O 0.6119 0.25000 0.32711 1.0000 0.0419
O21 O 0.2299 0.38870 0.19919 1.0000 0.0674
O22 O 0.1105 0.25000 0.17291 1.0000 0.0365
O23 O 0.0655 0.43260 0.16743 1.0000 0.0557
O24 O -0.0093 0.60740 0.16648 1.0000 0.0500
O25 O -0.0809 0.75000 0.12586 1.0000 0.0374
O26 O -0.0973 0.57040 0.10003 1.0000 0.0594
O27 O -0.1265 0.45840 0.16049 1.0000 0.0813
O28 O 0.0694 0.34950 0.23774 1.0000 0.0445
O29 O -0.0988 0.34940 0.27105 1.0000 0.0410
O30 O 0.0365 0.46780 0.29472 1.0000 0.0600
O31 O 0.4592 0.49740 0.27221 1.0000 0.0546
O32 O 0.3714 0.46170 0.33876 1.0000 0.0790
O33 O 0.4023 0.57150 0.39975 1.0000 0.0591
O34 O 0.4903 0.60570 0.33368 1.0000 0.0477
O35 O 0.5683 0.65500 0.40167 1.0000 0.0735
O36 O 0.4194 0.75000 0.37391 1.0000 0.0346
O37 O 0.6264 0.75000 0.46337 1.0000 0.0553
O38 O 0.7327 0.72820 0.40025 0.5000 0.0550
O41 O 0.3366 0.39670 0.40898 1.0000 0.0666
O42 O 0.2229 0.52860 0.37786 1.0000 0.0823
O43 O 0.1574 0.42490 0.43608 1.0000 0.0448
O44 O 0.0674 0.58220 0.41568 1.0000 0.0502
O45 O 0.0586 0.43100 0.37049 1.0000 0.0676
O46 O -0.0158 0.59620 0.34722 1.0000 0.0543
O47 O -0.1170 0.43460 0.34003 1.0000 0.0517
O48 O -0.1595 0.25000 0.33212 1.0000 0.0382
O49 O 0.7302 0.38960 0.30128 1.0000 0.0724
O50 O -0.0418 0.49720 0.22809 1.0000 0.0526
O51 O 0.2189 0.25000 0.42083 1.0000 0.0453
O52 O 0.2923 0.34220 0.48036 1.0000 0.0621
O53 O -0.2758 0.52900 0.12220 1.0000 0.0825
O54 O 0.9307 0.34420 -0.09904 1.0000 0.0797
O55 O 0.8734 0.25000 -0.03673 1.0000 0.0610
O56 O 0.0438 0.75000 0.38169 1.0000 0.0423
O57 O -0.1047 0.65550 0.41117 1.0000 0.0993
O58 O -0.1851 0.73500 0.46740 0.5000 0.1160
As1 As 0.62377 0.75000 0.41709 0.4540 0.0285
As2 As 0.61772 0.35478 0.30594 0.4130 0.0287
As3 As 0.33971 0.35111 0.18873 0.4190 0.0305
As4 As -0.16022 0.35111 0.31131 0.4160 0.0301
As5 As 0.33607 0.75000 0.07758 0.4400 0.0325
As6 As 0.11800 0.35512 0.19402 0.4260 0.0299
As7 As 0.87579 0.25000 -0.08295 0.3980 0.0286
As8 As -0.16367 0.75000 0.42248 0.3770 0.0306
As9 As -0.02704 0.49683 0.18010 0.4410 0.0305
As10 As 0.47271 0.49688 0.31977 0.4540 0.0317
As11 As 0.49290 0.48188 0.16212 0.4800 0.0318
As12 As -0.00743 0.48213 0.33789 0.4790 0.0312
As13 As 0.75111 0.35245 0.06336 0.4050 0.0286
As14 As 0.25087 0.35292 0.43665 0.4120 0.0298
As15 As 0.62821 0.49126 0.10080 0.2460 0.0295
As16 As -0.02963 0.64709 0.12364 0.2277 0.0279
As17 As 0.33236 0.49174 0.38092 0.2500 0.0344
As18 As -0.16777 0.49179 0.11900 0.2330 0.0374
As19 As -0.00601 0.64452 0.38818 0.2420 0.0370
As20 As 0.47026 0.64657 0.37645 0.1934 0.0267
As21 As 0.12789 0.49163 0.39921 0.2270 0.0313
As22 As 0.49430 0.64491 0.11178 0.1968 0.0343




