data_UCSB-7
_cell_length_a        18.5356
_cell_length_b        18.5356
_cell_length_c        18.5356
_cell_angle_alpha    90.00
_cell_angle_beta     90.00
_cell_angle_gamma    90.00


# setting 
# _symmetry_space_group_name_H-M 'Ia-3d'


loop_
_symmetry_equiv_pos_as_xyz
'x,y,z'
'x+1/4,-z+1/4,y+3/4'
'x+1/4,z+3/4,-y+3/4'
'z+1/4,y+3/4,-x+3/4'
'-z+1/4,y+3/4,x+1/4'
'-y+1/4,x+3/4,z+1/4'
'y+1/4,-x+1/4,z+3/4'
'z,x,y'
'y,z,x'
'-y,-z+1/2,x'
'z,-x,-y+1/2'
'-y+1/2,z,-x'
'-z,-x+1/2,y'
'-z+1/2,x,-y'
'y,-z,-x+1/2'
'x,-y,-z+1/2'
'-x+1/2,y,-z'
'-x,-y+1/2,z'
'y+1/4,x+3/4,-z+3/4'
'-y+1/4,-x+1/4,-z+1/4'
'z+1/4,-y+1/4,x+3/4'
'-z+1/4,-y+1/4,-x+1/4'
'-x+1/4,z+3/4,y+1/4'
'-x+1/4,-z+1/4,-y+1/4'
'-x,-y,-z'
'-x-1/4,z-1/4,-y-3/4'
'-x-1/4,-z-3/4,y-3/4'
'-z-1/4,-y-3/4,x-3/4'
'z-1/4,-y-3/4,-x-1/4'
'y-1/4,-x-3/4,-z-1/4'
'-y-1/4,x-1/4,-z-3/4'
'-z,-x,-y'
'-y,-z,-x'
'y,z-1/2,-x'
'-z,x,y-1/2'
'y-1/2,-z,x'
'z,x-1/2,-y'
'z-1/2,-x,y'
'-y,z,x-1/2'
'-x,y,z-1/2'
'x-1/2,-y,z'
'x,y-1/2,-z'
'-y-1/4,-x-3/4,z-3/4'
'y-1/4,x-1/4,z-1/4'
'-z-1/4,y-1/4,-x-3/4'
'z-1/4,y-1/4,x-1/4'
'x-1/4,-z-3/4,-y-1/4'
'x-1/4,z-1/4,y-1/4'
'x+1/2,y+1/2,z+1/2'
'x+3/4,-z+3/4,y+5/4'
'x+3/4,z+5/4,-y+5/4'
'z+3/4,y+5/4,-x+5/4'
'-z+3/4,y+5/4,x+3/4'
'-y+3/4,x+5/4,z+3/4'
'y+3/4,-x+3/4,z+5/4'
'z+1/2,x+1/2,y+1/2'
'y+1/2,z+1/2,x+1/2'
'-y+1/2,-z+1,x+1/2'
'z+1/2,-x+1/2,-y+1'
'-y+1,z+1/2,-x+1/2'
'-z+1/2,-x+1,y+1/2'
'-z+1,x+1/2,-y+1/2'
'y+1/2,-z+1/2,-x+1'
'x+1/2,-y+1/2,-z+1'
'-x+1,y+1/2,-z+1/2'
'-x+1/2,-y+1,z+1/2'
'y+3/4,x+5/4,-z+5/4'
'-y+3/4,-x+3/4,-z+3/4'
'z+3/4,-y+3/4,x+5/4'
'-z+3/4,-y+3/4,-x+3/4'
'-x+3/4,z+5/4,y+3/4'
'-x+3/4,-z+3/4,-y+3/4'
'-x+1/2,-y+1/2,-z+1/2'
'-x+1/4,z+1/4,-y-1/4'
'-x+1/4,-z-1/4,y-1/4'
'-z+1/4,-y-1/4,x-1/4'
'z+1/4,-y-1/4,-x+1/4'
'y+1/4,-x-1/4,-z+1/4'
'-y+1/4,x+1/4,-z-1/4'
'-z+1/2,-x+1/2,-y+1/2'
'-y+1/2,-z+1/2,-x+1/2'
'y+1/2,z,-x+1/2'
'-z+1/2,x+1/2,y'
'y,-z+1/2,x+1/2'
'z+1/2,x,-y+1/2'
'z,-x+1/2,y+1/2'
'-y+1/2,z+1/2,x'
'-x+1/2,y+1/2,z'
'x,-y+1/2,z+1/2'
'x+1/2,y,-z+1/2'
'-y+1/4,-x-1/4,z-1/4'
'y+1/4,x+1/4,z+1/4'
'-z+1/4,y+1/4,-x-1/4'
'z+1/4,y+1/4,x+1/4'
'x+1/4,-z-1/4,-y+1/4'
'x+1/4,z+1/4,y+1/4'


loop_
_atom_site_label
_atom_site_type_sumbol
_atom_site_fract_x
_atom_site_fract_y
_atom_site_fract_z
_atom_site_occupancy
_atom_site_U_iso_or_equiv
Ge Ge 0.2571 0.3484 0.1135 0.75 0.0120
Ga Ga 0.2571 0.3484 0.1135 0.25 0.0120
O1 O 0.1768 0.3347 0.0630 1.0 0.0190
O2 O 0.2996 0.2629 0.1174 1.0 0.0210
C1 C 0.2032 0.1250 0.0468 1.0 0.0950
N1 N 0.2500 0.0790 0.0 0.5 0.1099




