data_Cancrinite
_cell_length_a         12.635
_cell_length_b         12.635
_cell_length_c         5.115
_cell_angle_alpha     90
_cell_angle_beta      90
_cell_angle_gamma     120


# setting 
_symmetry_space_group_name_H-M 'P63'


loop_
_symmetry_equiv_pos_as_xyz
'x,y,z'
'x-y,x,z+1/2'
'y,-x+y,z+1/2'
'-y,x-y,z'
'-x+y,-x,z'
'-x,-y,z+1/2'


loop_
_atom_site_label
_atom_site_type_symbol
_atom_site_fract_x
_atom_site_fract_y
_atom_site_fract_z
_atom_site_occupancy
_atom_site_U_iso_or_equiv
NA1 Na 0.6667 0.3333 0.1354 1.0 0.0236
NA2 Na 0.1254 0.2521 0.2943 1.0 0.0153
SI1 Si 0.3300 0.4115 0.7500 1.0 0.0041
AL1 Al 0.0772 0.4121 0.75 1.0 0.0034
O1 O 0.2019 0.4035 0.6586 1.0 0.0071
O2 O 0.1157 0.5619 0.7248 1.0 0.0094
O3 O 0.0329 0.3526 0.0588 1.0 0.0087
O4 O 0.3161 0.3582 0.0486 1.0 0.0091
C1 C 0.0 0.0 0.173 0.595 0.0414
O5 O 0.1179 0.0603 0.173 0.6 0.0199
H2O1 O2-(H2O) 0.378 0.701 0.179 0.333 0.0669




