data_UZM-25_calcined
_cell_length_a        7.3850
_cell_length_b        18.4453
_cell_length_c        13.7950
_cell_angle_alpha    90.0
_cell_angle_beta     90.0
_cell_angle_gamma    90.0


# setting 
# _symmetry_space_group_name_H-M 'Cmcm'


loop_
_symmetry_equiv_pos_as_xyz
'x,y,z'
'x,-y,-z'
'-x,y,-z+1/2'
'-x,-y,z+1/2'
'-x,-y,-z'
'-x,y,z'
'x,-y,z-1/2'
'x,y,-z-1/2'
'x+1/2,y+1/2,z'
'x+1/2,-y+1/2,-z'
'-x+1/2,y+1/2,-z+1/2'
'-x+1/2,-y+1/2,z+1/2'
'-x+1/2,-y+1/2,-z'
'-x+1/2,y+1/2,z'
'x+1/2,-y+1/2,z-1/2'
'x+1/2,y+1/2,-z-1/2'


loop_
_atom_site_label
_atom_site_type_sumbol
_atom_site_fract_x
_atom_site_fract_y
_atom_site_fract_z
_atom_site_occupancy
_atom_site_U_iso_or_equiv
Si1 Si 0.2054 0.1776 0.4503 1 0.0477
Si2 Si 0 0.4204 0.4613 1 0.0467
Si3 Si 0.2921 0.2382 0.25 1 0.0657
Si4 Si 0 0.3631 0.25 1 0.0670
O1 O 0 0.1571 0.467 1 0.0719
O2 O 0.2456 0.1865 0.3393 1 0.0950
O3 O 0.3249 0.117 0.4971 1 0.0850
O4 O 0 0.5 0.5 1 0.0950
O5 O 0.1731 0.3123 0.25 1 0.0880
O6 O 0.5 0.2599 0.25 1 0.0711
O7 O 0 0.4151 0.3447 1 0.0719
O8 O 0.25 0.25 0.5 1 0.1220




