data_CIT-5
_cell_length_a        13.695
_cell_length_b        5.021
_cell_length_c        25.497
_cell_angle_alpha    90.0
_cell_angle_beta     90.0
_cell_angle_gamma    90.0


# setting 
_symmetry_space_group_name_H-M 'Imma'


loop_
_symmetry_equiv_pos_as_xyz
'x,y,z'
'x,-y,-z'
'-x,y+1/2,-z'
'-x,-y+1/2,z'
'-x,-y,-z'
'-x,y,z'
'x,-y-1/2,z'
'x,y-1/2,-z'
'x+1/2,y+1/2,z+1/2'
'x+1/2,-y+1/2,-z+1/2'
'-x+1/2,y+1,-z+1/2'
'-x+1/2,-y+1,z+1/2'
'-x+1/2,-y+1/2,-z+1/2'
'-x+1/2,y+1/2,z+1/2'
'x+1/2,-y,z+1/2'
'x+1/2,y,-z+1/2'


loop_
_atom_site_label
_atom_site_type_symbol
_atom_site_fract_x
_atom_site_fract_y
_atom_site_fract_z
_atom_site_occupancy
_atom_site_U_iso_or_equiv
Si1 Si 0.1160 0.2500 0.0317 1.0 0.0420
Si2 Si 0.0000 0.7500 0.2788 1.0 0.0819
Si3 Si 0.2820 0.7500 0.1887 1.0 0.0500
Si4 Si 0.0000 0.2500 0.2177 1.0 0.0200
Si5 Si 0.1936 0.2500 0.1479 1.0 0.0410
O1 O 0.0000 0.2500 0.0512 1.0 0.0490
O2 O 0.0853 0.2500 0.1737 1.0 0.0149
O3 O 0.0000 0.5776 0.2309 1.0 0.1101
O4 O 0.1303 0.0000 0.0000 1.0 0.5390
O5 O 0.1896 0.2500 0.0909 1.0 0.0600
O6 O 0.2500 0.7500 0.2500 1.0 0.0860
O7 O 0.0913 0.7500 0.3099 1.0 0.0470
O8 O 0.2640 0.4474 0.1665 1.0 0.0700




