data_Cobalt_Gallium_Phosphate-5
_cell_length_a        15.002
_cell_length_b        17.688
_cell_length_c        15.751
_cell_angle_alpha    90
_cell_angle_beta     97.24
_cell_angle_gamma    90


# setting 
_symmetry_space_group_name_H-M 'I12/a1'


loop_
_symmetry_equiv_pos_as_xyz
'x,y,z'
'-x+1/2,y,-z'
'-x,-y,-z'
'x-1/2,-y,z'
'x+1/2,y+1/2,z+1/2'
'-x+1,y+1/2,-z+1/2'
'-x+1/2,-y+1/2,-z+1/2'
'x,-y+1/2,z+1/2'


loop_
_atom_site_label
_atom_site_type_symbol
_atom_site_fract_x
_atom_site_fract_y
_atom_site_fract_z
_atom_site_occupancy
_atom_site_U_iso_or_equiv
Ga1 Ga 0.75 0.29158 0.5 0.5556 0.0186
Co1 Co 0.75 0.29158 0.5 0.4444 0.0186
Ga2 Ga 0.32984 0.16923 0.18415 0.5556 0.0206
Co2 Co 0.32984 0.16923 0.18415 0.4444 0.0206
Ga3 Ga 0.42202 0.24028 0.41491 0.5556 0.0184
Co3 Co 0.42202 0.24028 0.41491 0.4444 0.0184
Ga4 Ga 0.63514 0.18555 0.24494 0.5556 0.0206
Co4 Co 0.63514 0.18555 0.24494 0.4444 0.0206
Ga5 Ga 0.52517 0.40972 0.18697 0.5556 0.0274
Co5 Co 0.52517 0.40972 0.18697 0.4444 0.0274
P6 P 0.3610 0.3363 0.2520 1.0 0.0217
P7 P 0.5774 0.2711 0.0693 1.0 0.0186
P8 P 0.6822 0.3463 0.3219 1.0 0.0258
P9 P 0.4756 0.0936 0.3070 1.0 0.0196
P10 P 0.25 0.2890 0.5 1.0 0.0251
O1 O 0.8277 0.2249 0.4553 1.0 0.0386
O2 O 0.7114 0.3640 0.4163 1.0 0.0353
O3 O 0.4202 0.0985 0.2176 1.0 0.0324
O4 O 0.2386 0.1480 0.2461 1.0 0.0502
O5 O 0.3731 0.2661 0.1994 1.0 0.0436
O6 O 0.2983 0.1586 0.0673 1.0 0.0358
O7 O 0.4106 0.3250 0.3414 1.0 0.0363
O8 O 0.4355 0.1478 0.3661 1.0 0.0377
O9 O 0.5182 0.2648 0.4944 1.0 0.0401
O10 O 0.3135 0.2365 0.4613 1.0 0.0470
O11 O 0.5739 0.2161 0.1438 1.0 0.0388
O12 O 0.5731 0.1122 0.2980 1.0 0.0423
O13 O 0.6558 0.2632 0.3183 1.0 0.0572
O14 O 0.7439 0.1405 0.2334 1.0 0.0600
O15 O 0.6056 0.3974 0.2906 1.0 0.0450
O16 O 0.4009 0.4030 0.2099 1.0 0.0282
O17 O 0.5493 0.3499 0.0891 1.0 0.0339
O18 O 0.5272 0.5173 0.1552 1.0 0.0328
N1 N 0.8049 0.5046 0.0671 1.0 0.0336
N2 N 0.987 0.0584 0.0420 1.0 0.0787
C1 C 0.854 0.512 -0.009 0.5 0.0594
C2 C 0.740 0.569 0.066 0.5 0.0536
C3 C 0.753 0.4328 0.060 0.5 0.0555
C4 C 0.7130 0.519 0.088 0.5 0.0633
C6 C 0.807 0.4306 0.024 0.5 0.0636
C5 C 0.831 0.564 0.010 0.5 0.0635
C7 C 0.993 0.074 -0.049 0.5 0.0899
C8 C 0.917 -0.001 0.049 0.5 0.0617
C9 C 1.075 0.027 0.081 0.5 0.1749
C10 C 1.018 -0.004 0.102 0.5 0.0798
C11 C 1.059 0.075 -0.011 0.5 0.0727
C12 C 0.907 0.031 -0.016 0.5 0.2042




