data_Cobalt_Gallium_Phosphate-6
_cell_length_a        14.365
_cell_length_b        16.305
_cell_length_c        8.734
_cell_angle_alpha    90
_cell_angle_beta     90.243
_cell_angle_gamma    90


# setting 
_symmetry_space_group_name_H-M 'P121/c1'


loop_
_symmetry_equiv_pos_as_xyz
'x,y,z'
'-x,y+1/2,-z+1/2'
'-x,-y,-z'
'x,-y-1/2,z-1/2'


loop_
_atom_site_label
_atom_site_type_symbol
_atom_site_fract_x
_atom_site_fract_y
_atom_site_fract_z
_atom_site_occupancy
_atom_site_U_iso_or_equiv
Ga1 Ga 0.1365 0.0342 0.5716 0.53 0.0127
Ga2 Ga 0.04238 0.2716 0.6324 0.87 0.0149
Ga3 Ga 0.47446 -0.1263 0.5896 0.88 0.0135
Ga4 Ga 0.36576 0.1616 0.8134 0.72 0.0141
Co1 Co 0.1365 0.0342 0.5716 0.47 0.0127
Co2 Co 0.04238 0.2716 0.6324 0.13 0.0149
Co3 Co 0.47446 -0.1263 0.5896 0.12 0.0135
Co4 Co 0.36576 0.1616 0.8134 0.28 0.0141
P5 P 0.14798 0.1518 0.8485 1.0 0.0165
P6 P 0.35984 0.0307 0.5527 1.0 0.0126
P7 P 0.47275 0.2188 1.1099 1.0 0.0123
P8 P -0.02864 0.1324 0.4143 1.0 0.0128
O1 O 0.4479 0.1630 0.9765 1.0 0.0217
O2 O 0.464 -0.1709 0.7813 1.0 0.0222
O3 O -0.0339 0.1972 0.5409 1.0 0.0300
O4 O 0.3701 -0.0628 0.5607 1.0 0.0236
O5 O -0.0364 0.1735 0.2574 1.0 0.0286
O6 O 0.2498 0.1493 0.8965 1.0 0.0356
O7 O 0.1352 0.2251 0.7428 1.0 0.0351
O8 O 0.0883 0.1587 0.9916 1.0 0.0369
O9 O 0.1184 0.0727 0.7705 1.0 0.0321
O10 O 0.3842 0.253 0.6913 1.0 0.0231
O11 O 0.4197 0.0638 0.4221 1.0 0.0217
O12 O 0.0625 0.0856 0.4233 1.0 0.0243
O13 O 0.2599 0.0521 0.5152 1.0 0.0276
O14 O 0.392 0.0664 0.7056 1.0 0.0257
O15 O 0.4704 -0.2072 0.4434 1.0 0.0197
O16 O 0.1137 -0.0781 0.5674 1.0 0.0233
N1 N 0.2511 0.9653 0.013 0.483 0.0781
N2 N 0.2528 0.9332 0.236 0.517 0.1033
C1 C 0.177 0.963 0.119 0.483 0.1546
C2 C 0.167 0.882 0.189 0.483 0.1519
C3 C 0.2399 0.9008 -0.099 0.483 0.0552
C4 C 0.2491 0.8189 -0.028 0.483 0.0591
C5 C 0.338 0.952 0.087 0.483 0.1208
C6 C 0.337 0.881 0.181 0.483 0.1191
C7 C 0.254 0.8269 0.148 0.483 0.0877
C8 C 0.254 0.8471 0.2510 0.517 0.0964
C9 C 0.256 0.8053 0.0970 0.517 0.1008
C10 C 0.3236 0.9609 0.1360 0.517 0.0857
C11 C 0.3053 0.9362 -0.0230 0.517 0.0724
C12 C 0.1654 0.9564 0.1760 0.517 0.0693
C13 C 0.139 0.9113 0.0390 0.517 0.0528
C14 C 0.225 0.8699 -0.0280 0.517 0.0683




