data_Cloverite
_cell_length_a         51.7120
_cell_length_b         51.7120
_cell_length_c         51.7120
_cell_angle_alpha    90.0
_cell_angle_beta      90
_cell_angle_gamma     90


# setting 
_symmetry_space_group_name_H-M 'Fm-3c'


loop_
_symmetry_equiv_pos_as_xyz
'x,y,z'
'x+1/2,-z,y'
'x+1/2,z,-y'
'z+1/2,y,-x'
'-z+1/2,y,x'
'-y+1/2,x,z'
'y+1/2,-x,z'
'z,x,y'
'y,z,x'
'-y,-z,x'
'z,-x,-y'
'-y,z,-x'
'-z,-x,y'
'-z,x,-y'
'y,-z,-x'
'x,-y,-z'
'-x,y,-z'
'-x,-y,z'
'y+1/2,x,-z'
'-y+1/2,-x,-z'
'z+1/2,-y,x'
'-z+1/2,-y,-x'
'-x+1/2,z,y'
'-x+1/2,-z,-y'
'-x,-y,-z'
'-x-1/2,z,-y'
'-x-1/2,-z,y'
'-z-1/2,-y,x'
'z-1/2,-y,-x'
'y-1/2,-x,-z'
'-y-1/2,x,-z'
'-z,-x,-y'
'-y,-z,-x'
'y,z,-x'
'-z,x,y'
'y,-z,x'
'z,x,-y'
'z,-x,y'
'-y,z,x'
'-x,y,z'
'x,-y,z'
'x,y,-z'
'-y-1/2,-x,z'
'y-1/2,x,z'
'-z-1/2,y,-x'
'z-1/2,y,x'
'x-1/2,-z,-y'
'x-1/2,z,y'
'x,y+1/2,z+1/2'
'x+1/2,-z+1/2,y+1/2'
'x+1/2,z+1/2,-y+1/2'
'z+1/2,y+1/2,-x+1/2'
'-z+1/2,y+1/2,x+1/2'
'-y+1/2,x+1/2,z+1/2'
'y+1/2,-x+1/2,z+1/2'
'z,x+1/2,y+1/2'
'y,z+1/2,x+1/2'
'-y,-z+1/2,x+1/2'
'z,-x+1/2,-y+1/2'
'-y,z+1/2,-x+1/2'
'-z,-x+1/2,y+1/2'
'-z,x+1/2,-y+1/2'
'y,-z+1/2,-x+1/2'
'x,-y+1/2,-z+1/2'
'-x,y+1/2,-z+1/2'
'-x,-y+1/2,z+1/2'
'y+1/2,x+1/2,-z+1/2'
'-y+1/2,-x+1/2,-z+1/2'
'z+1/2,-y+1/2,x+1/2'
'-z+1/2,-y+1/2,-x+1/2'
'-x+1/2,z+1/2,y+1/2'
'-x+1/2,-z+1/2,-y+1/2'
'-x,-y+1/2,-z+1/2'
'-x-1/2,z+1/2,-y+1/2'
'-x-1/2,-z+1/2,y+1/2'
'-z-1/2,-y+1/2,x+1/2'
'z-1/2,-y+1/2,-x+1/2'
'y-1/2,-x+1/2,-z+1/2'
'-y-1/2,x+1/2,-z+1/2'
'-z,-x+1/2,-y+1/2'
'-y,-z+1/2,-x+1/2'
'y,z+1/2,-x+1/2'
'-z,x+1/2,y+1/2'
'y,-z+1/2,x+1/2'
'z,x+1/2,-y+1/2'
'z,-x+1/2,y+1/2'
'-y,z+1/2,x+1/2'
'-x,y+1/2,z+1/2'
'x,-y+1/2,z+1/2'
'x,y+1/2,-z+1/2'
'-y-1/2,-x+1/2,z+1/2'
'y-1/2,x+1/2,z+1/2'
'-z-1/2,y+1/2,-x+1/2'
'z-1/2,y+1/2,x+1/2'
'x-1/2,-z+1/2,-y+1/2'
'x-1/2,z+1/2,y+1/2'
'x+1/2,y,z+1/2'
'x+1,-z,y+1/2'
'x+1,z,-y+1/2'
'z+1,y,-x+1/2'
'-z+1,y,x+1/2'
'-y+1,x,z+1/2'
'y+1,-x,z+1/2'
'z+1/2,x,y+1/2'
'y+1/2,z,x+1/2'
'-y+1/2,-z,x+1/2'
'z+1/2,-x,-y+1/2'
'-y+1/2,z,-x+1/2'
'-z+1/2,-x,y+1/2'
'-z+1/2,x,-y+1/2'
'y+1/2,-z,-x+1/2'
'x+1/2,-y,-z+1/2'
'-x+1/2,y,-z+1/2'
'-x+1/2,-y,z+1/2'
'y+1,x,-z+1/2'
'-y+1,-x,-z+1/2'
'z+1,-y,x+1/2'
'-z+1,-y,-x+1/2'
'-x+1,z,y+1/2'
'-x+1,-z,-y+1/2'
'-x+1/2,-y,-z+1/2'
'-x,z,-y+1/2'
'-x,-z,y+1/2'
'-z,-y,x+1/2'
'z,-y,-x+1/2'
'y,-x,-z+1/2'
'-y,x,-z+1/2'
'-z+1/2,-x,-y+1/2'
'-y+1/2,-z,-x+1/2'
'y+1/2,z,-x+1/2'
'-z+1/2,x,y+1/2'
'y+1/2,-z,x+1/2'
'z+1/2,x,-y+1/2'
'z+1/2,-x,y+1/2'
'-y+1/2,z,x+1/2'
'-x+1/2,y,z+1/2'
'x+1/2,-y,z+1/2'
'x+1/2,y,-z+1/2'
'-y,-x,z+1/2'
'y,x,z+1/2'
'-z,y,-x+1/2'
'z,y,x+1/2'
'x,-z,-y+1/2'
'x,z,y+1/2'
'x+1/2,y+1/2,z'
'x+1,-z+1/2,y'
'x+1,z+1/2,-y'
'z+1,y+1/2,-x'
'-z+1,y+1/2,x'
'-y+1,x+1/2,z'
'y+1,-x+1/2,z'
'z+1/2,x+1/2,y'
'y+1/2,z+1/2,x'
'-y+1/2,-z+1/2,x'
'z+1/2,-x+1/2,-y'
'-y+1/2,z+1/2,-x'
'-z+1/2,-x+1/2,y'
'-z+1/2,x+1/2,-y'
'y+1/2,-z+1/2,-x'
'x+1/2,-y+1/2,-z'
'-x+1/2,y+1/2,-z'
'-x+1/2,-y+1/2,z'
'y+1,x+1/2,-z'
'-y+1,-x+1/2,-z'
'z+1,-y+1/2,x'
'-z+1,-y+1/2,-x'
'-x+1,z+1/2,y'
'-x+1,-z+1/2,-y'
'-x+1/2,-y+1/2,-z'
'-x,z+1/2,-y'
'-x,-z+1/2,y'
'-z,-y+1/2,x'
'z,-y+1/2,-x'
'y,-x+1/2,-z'
'-y,x+1/2,-z'
'-z+1/2,-x+1/2,-y'
'-y+1/2,-z+1/2,-x'
'y+1/2,z+1/2,-x'
'-z+1/2,x+1/2,y'
'y+1/2,-z+1/2,x'
'z+1/2,x+1/2,-y'
'z+1/2,-x+1/2,y'
'-y+1/2,z+1/2,x'
'-x+1/2,y+1/2,z'
'x+1/2,-y+1/2,z'
'x+1/2,y+1/2,-z'
'-y,-x+1/2,z'
'y,x+1/2,z'
'-z,y+1/2,-x'
'z,y+1/2,x'
'x,-z+1/2,-y'
'x,z+1/2,y'


loop_
_atom_site_label
_atom_site_type_symbol
_atom_site_fract_x
_atom_site_fract_y
_atom_site_fract_z
_atom_site_occupancy
_atom_site_U_iso_or_equiv
Ga1 Ga 0.1341 0.3275 0.2780 1.0 0.0139
Ga2 Ga 0.0370 0.3507 0.3134 1.0 0.0175
Ga3 Ga 0.0958 0.3654 0.2236 1.0 0.0140
Ga4 Ga 0.0 0.3242 0.2140 1.0 0.0150
Ga5 Ga 0.0 0.3415 0.3801 1.0 0.0315
P1 P 0.0888 0.3656 0.2818 1.0 0.0172
P2 P 0.0 0.3226 0.2769 1.0 0.0094
P3 P 0.0 0.3876 0.3414 1.0 0.0146
P4 P 0.1336 0.3210 0.2180 1.0 0.0078
P5 P 0.0446 0.3097 0.3556 1.0 0.0121
O1 O 0.0800 0.3669 0.2542 1.0 0.0351
O2 O 0.1059 0.3885 0.2891 1.0 0.0179
O3 O 0.1036 0.3404 0.2866 1.0 0.0310
O4 O 0.0657 0.3679 0.2999 1.0 0.0201
O5 O 0.1360 0.3124 0.2458 1.0 0.0506
O6 O 0.1339 0.2970 0.2951 1.0 0.0182
O7 O 0.1631 0.3439 0.2914 1.0 0.0579
O8 O 0.0237 0.3376 0.2830 1.0 0.0434
O9 O 0.0 0.3158 0.2475 1.0 0.0152
O10 O 0.0 0.2979 0.2916 1.0 0.0259
O11 O 0.0521 0.3286 0.3360 1.0 0.0537
O12 O 0.0242 0.3795 0.3277 1.0 0.0500
O13 O 0.0 0.3738 0.3670 1.0 0.0395
O14 O 0.1091 0.3344 0.2142 1.0 0.0406
O15 O 0.0675 0.3692 0.2010 1.0 0.0286
O16 O -0.0289 0.3436 0.2115 1.0 0.0354
O17 O 0.0283 0.3231 0.3764 1.0 0.0395
O18 O 0.0 0.4161 0.3461 1.0 0.0148
O19 O 0.0 0.3461 0.4150 1.0 0.0759
F1 F 0.1335 0.3664 0.25 1.0 0.0219
F2 F 0.0 0.3325 0.3297 1.0 0.0258




