data_CIT-7
_cell_length_a        13.0187
_cell_length_b        11.2063
_cell_length_c        9.3758
_cell_angle_alpha    92.82
_cell_angle_beta     107.20
_cell_angle_gamma    103.26


# setting 
_symmetry_space_group_name_H-M 'P-1'


loop_
_symmetry_equiv_pos_as_xyz
'x,y,z'
'-x,-y,-z'


loop_
_atom_site_label
_atom_site_type_symbol
_atom_site_fract_x
_atom_site_fract_y
_atom_site_fract_z
_atom_site_occupancy
_atom_site_U_iso_or_equiv
O1 O 0.2236 0.5059 0.0497 1.0000 0.0136
O2 O 0.3564 0.4201 0.2714 1.0000 0.0136
O3 O 0.3240 0.6411 0.3146 1.0000 0.0136
O4 O 0.1662 0.4463 0.2860 1.0000 0.0136
O5 O 0.3703 0.6646 0.9715 1.0000 0.0136
O6 O 0.1691 0.5937 0.7893 1.0000 0.0136
O7 O 0.2986 0.4377 0.8372 1.0000 0.0136
O8 O 0.3411 0.2514 0.7003 1.0000 0.0136
O9 O 0.4275 0.4816 0.6650 1.0000 0.0136
O10 O 0.2112 0.3738 0.5487 1.0000 0.0136
O11 O 0.1312 0.5669 0.4991 1.0000 0.0136
O12 O 1.0012 0.3462 0.3897 1.0000 0.0136
O13 O 0.3314 0.0139 0.6712 1.0000 0.0136
O14 O 0.5093 0.1725 0.6611 1.0000 0.0136
O15 O 0.4571 0.1536 0.9168 1.0000 0.0136
O16 O 0.4093 0.8471 0.8129 1.0000 0.0136
O17 O 0.2014 0.7903 0.6425 1.0000 0.0136
O18 O 0.3636 0.8314 0.5162 1.0000 0.0136
O19 O 0.4693 0.3106 0.1474 1.0000 0.0136
O20 O 0.4992 0.3135 0.4408 1.0000 0.0136
Si1 Si 0.2680 0.5033 0.2286 1.0000 0.0101
Si2 Si 0.2646 0.5496 0.9108 1.0000 0.0101
Si3 Si 0.3210 0.3874 0.6886 1.0000 0.0101
Si4 Si 0.1261 0.4313 0.4305 1.0000 0.0101
Si5 Si 0.4105 0.1493 0.7367 1.0000 0.0101
Si6 Si 0.3255 0.8692 0.6586 1.0000 0.0101
Si7 Si 0.1261 0.6529 0.6366 1.0000 0.0101
Si8 Si 0.4754 0.3911 0.2987 1.0000 0.0101
Si9 Si 0.4638 0.7620 0.9296 1.0000 0.0101
Si10 Si 0.4203 0.7469 0.4335 1.0000 0.0101




