data_Chiral_Sodium_Zincophosphate_P6522
_cell_length_a        10.412
_cell_length_b        10.412
_cell_length_c        15.184
_cell_angle_alpha    90.0
_cell_angle_beta     90.0
_cell_angle_gamma    120.0


# setting 
# _symmetry_space_group_name_H-M 'P6522'


loop_
_symmetry_equiv_pos_as_xyz
'x,y,z'
'x-y,x,z+5/6'
'y,-x+y,z+1/6'
'-y,x-y,z+2/3'
'-x+y,-x,z+1/3'
'x-y,-y,-z'
'-x,-x+y,-z+1/3'
'-x,-y,z+1/2'
'y,x,-z+2/3'
'-y,-x,-z+1/6'
'-x+y,y,-z+1/2'
'x,x-y,-z+5/6'


loop_
_atom_site_label
_atom_site_type_sumbol
_atom_site_fract_x
_atom_site_fract_y
_atom_site_fract_z
_atom_site_occupancy
_atom_site_U_iso_or_equiv
Zn1 Zn 0.84243 0.68486 0.75 1.0 0.0228
Zn2 Zn 0.49697 0.99393 0.75 1.0 0.0312
P1 P 0.17041 0.40605 0.06011 1.0 0.0220
O1 O 0.1976 0.4597 0.1566 1.0 0.0339
O2 O 0.0519 0.2464 0.0547 1.0 0.0331
O3 O 0.3130 0.4229 0.0201 1.0 0.0300
O4 O 0.1292 0.5030 0.0075 1.0 0.0360
Na1 Na 0.6713 0.3425 0.75 0.34 0.1109
O5 O 0.5908 0.7113 0.3441 0.34 0.0919




