data_Chiral_Sodium_Zincophosphate_P6122
_cell_length_a        10.4797
_cell_length_b        10.4797
_cell_length_c        15.089
_cell_angle_alpha    90.0
_cell_angle_beta     90.0
_cell_angle_gamma    120.0


# setting 
_symmetry_space_group_name_H-M 'P6122'


loop_
_symmetry_equiv_pos_as_xyz
'x,y,z'
'x-y,x,z+1/6'
'y,-x+y,z+5/6'
'-y,x-y,z+1/3'
'-x+y,-x,z+2/3'
'x-y,-y,-z'
'-x,-x+y,-z+2/3'
'-x,-y,z+1/2'
'y,x,-z+1/3'
'-y,-x,-z+5/6'
'-x+y,y,-z+1/2'
'x,x-y,-z+1/6'


loop_
_atom_site_label
_atom_site_type_symbol
_atom_site_fract_x
_atom_site_fract_y
_atom_site_fract_z
_atom_site_occupancy
_atom_site_U_iso_or_equiv
Zn1 Zn 0.8414 0.6827 0.25 1.0 0.0182
Zn2 Zn 0.5071 0.4929 0.41667 1.0 0.0198
P1 P 0.8324 0.5912 0.4409 1.0 0.0203
O1 O 0.805 0.5403 0.3439 1.0 0.0231
O2 O 1.0485 0.8019 0.2185 1.0 0.0255
O3 O 0.689 0.571 0.4808 1.0 0.0328
O4 O 0.873 0.489 0.4910 1.0 0.0312
Na1 Na 0.668 0.336 0.25 0.53 0.0370
Na2 Na 0.602 0.336 0.235 0.24 0.0370
O5 O 0.07 0.033 0.08333 0.10 0.0370
O6 O 0.410 0.302 0.161 0.29 0.0370
O7 O 0.076 0 0 0.24 0.0370
O8 O 0.425 0.247 0.117 0.30 0.0370




