data_N2_1-aminoadamantane_Deca-Dodecasil_3R
_cell_length_a         13.860
_cell_length_b         13.860
_cell_length_c         40.891
_cell_angle_alpha     90
_cell_angle_beta      90
_cell_angle_gamma     120


# setting H
_symmetry_space_group_name_H-M 'R-3m'


loop_
_symmetry_equiv_pos_as_xyz
'x,y,z'
'-y,x-y,z'
'-x+y,-x,z'
'x-y,-y,-z'
'-x,-x+y,-z'
'y,x,-z'
'-x,-y,-z'
'y,-x+y,-z'
'x-y,x,-z'
'-x+y,y,z'
'x,x-y,z'
'-y,-x,z'
'x+1/3,y+2/3,z+2/3'
'-y+1/3,x-y+2/3,z+2/3'
'-x+y+1/3,-x+2/3,z+2/3'
'x-y+1/3,-y+2/3,-z+2/3'
'-x+1/3,-x+y+2/3,-z+2/3'
'y+1/3,x+2/3,-z+2/3'
'-x+1/3,-y+2/3,-z+2/3'
'y+1/3,-x+y+2/3,-z+2/3'
'x-y+1/3,x+2/3,-z+2/3'
'-x+y+1/3,y+2/3,z+2/3'
'x+1/3,x-y+2/3,z+2/3'
'-y+1/3,-x+2/3,z+2/3'
'x+2/3,y+1/3,z+1/3'
'-y+2/3,x-y+1/3,z+1/3'
'-x+y+2/3,-x+1/3,z+1/3'
'x-y+2/3,-y+1/3,-z+1/3'
'-x+2/3,-x+y+1/3,-z+1/3'
'y+2/3,x+1/3,-z+1/3'
'-x+2/3,-y+1/3,-z+1/3'
'y+2/3,-x+y+1/3,-z+1/3'
'x-y+2/3,x+1/3,-z+1/3'
'-x+y+2/3,y+1/3,z+1/3'
'x+2/3,x-y+1/3,z+1/3'
'-y+2/3,-x+1/3,z+1/3'


loop_
_atom_site_label
_atom_site_type_symbol
_atom_site_fract_x
_atom_site_fract_y
_atom_site_fract_z
_atom_site_occupancy
_atom_site_U_iso_or_equiv
SI1 Si 0.7267 0.0511 0.0700 1.0 0.0096
SI2 Si 0.1264 0.2527 0.1095 1.0 0.0096
SI3 Si 0.2020 0.4039 0.1711 1.0 0.0025
SI4 Si 0.1227 0.2454 0.2325 1.0 0.0076
SI5 Si 0.2256 0.0000 0.0000 1.0 0.0104
SI6 Si 0.0000 0.0000 0.2039 1.0 0.0194
SI7 Si 0.0000 0.0000 0.1280 1.0 0.0110
O1 O 0.3576 0.3881 0.6358 1.0 0.0300
O2 O 0.2792 0.3749 0.5768 1.0 0.0184
O3 O 0.4067 0.2954 0.5889 1.0 0.0248
O4 O 0.2277 0.4554 0.6589 1.0 0.0476
O5 O 0.1767 0.3534 0.7447 1.0 0.0284
O6 O 0.3233 0.1616 0.5391 1.0 0.0381
O7 O 0.5401 0.2700 0.5494 1.0 0.0469
O8 O 0.2713 0.5426 0.5529 1.0 0.0315
O9 O 0.1780 0.3561 0.5230 1.0 0.0422
O10 O 0.1870 0.0000 0.5000 1.0 0.0209
O11 O 0.0000 0.0000 0.1661 1.0 0.0566
C512 C 0.5000 0.0000 0.5000 1.0 0.1914
N1 N 0.0000 0.0000 0.4455 0.9 0.5181
C1 C 0.0000 0.0000 0.4095 0.9 0.4715
C2 C 0.0596 0.1192 0.3954 0.9 0.1889
C3 C 0.0596 0.1192 0.3577 0.9 0.3581
C4 C 0.1192 0.0596 0.3438 0.9 0.1856
N11 N 0.0000 0.0000 0.2815 0.1 0.1992
C11 C 0.0000 0.0000 0.3175 0.1 0.2943
C21 C 0.0596 0.1192 0.3317 0.1 0.1089
C31 C 0.0596 0.1192 0.3694 0.1 0.0565
C41 C 0.1192 0.0596 0.3833 0.1 0.1951




