data_N_2_Piperidine_Dodecasil_1H
_cell_length_a         13.783
_cell_length_b         13.783
_cell_length_c         11.190
_cell_angle_alpha     90
_cell_angle_beta      90
_cell_angle_gamma     120


# setting 
# _symmetry_space_group_name_H-M 'P6/mmm'


loop_
_symmetry_equiv_pos_as_xyz
'x,y,z'
'x-y,x,z'
'y,-x+y,z'
'-y,x-y,z'
'-x+y,-x,z'
'x-y,-y,-z'
'-x,-x+y,-z'
'-x,-y,z'
'y,x,-z'
'-y,-x,-z'
'-x+y,y,-z'
'x,x-y,-z'
'-x,-y,-z'
'-x+y,-x,-z'
'-y,x-y,-z'
'y,-x+y,-z'
'x-y,x,-z'
'-x+y,y,z'
'x,x-y,z'
'x,y,-z'
'-y,-x,z'
'y,x,z'
'x-y,-y,z'
'-x,-x+y,z'


loop_
_atom_site_label
_atom_site_type_sumbol
_atom_site_fract_x
_atom_site_fract_y
_atom_site_fract_z
_atom_site_occupancy
_atom_site_U_iso_or_equiv
SI1 Si 0.4186 0.2093 0.2252 1.0 0.0269
SI2 Si 0.3868 0.0 0.3627 1.0 0.0299
SI3 Si 0.2628 0.1314 0.0 1.0 0.0206
SI4 Si 0.3333 0.6667 0.1384 1.0 0.0247
O1 O 0.1052 0.3933 0.3031 1.0 0.0822
O2 O 0.5429 0.2715 0.8164 1.0 0.0704
O3 O 0.3405 0.1702 0.1139 1.0 0.0555
O4 O 0.3601 0.0 0.5 1.0 0.0569
O5 O 0.1865 0.0 0.0 1.0 0.0507
O6 O 0.5 0.0 0.3451 1.0 0.0918
O7 O 0.3333 0.6667 0.0 1.0 0.1284
C1 C 0.333 0.667 0.356 0.1 0.1299
C2 C 0.381 0.762 0.402 0.1 0.1299
C3 C 0.309 0.618 0.436 0.1 0.1299
C4 C 0.230 0.760 0.500 0.1 0.1299
C5 C 0.0 0.5 0.036 0.1 0.1299
C6 C 0.092 0.636 0.0 0.1 0.1299
C7 C 0.122 0.531 0.0 0.1 0.1299
C8 C 0.0 0.431 0.0 0.1 0.1299
C9 C 0.140 0.570 0.122 0.1 0.1299
C10 C 0.0 0.0 0.296 0.1 0.1299
C11 C 0.038 0.010 0.380 0.1 0.1299
C12 C 0.040 0.080 0.458 0.1 0.1299
C13 C 0.041 0.082 0.316 0.1 0.1299
C14 C 0.085 0.0 0.398 0.1 0.1299
C15 C 0.0 0.0 0.049 0.1 0.1299
C16 C 0.199 0.398 0.462 0.1 0.1299




