data_Na_Tetramethylammonium-E
_cell_length_a         13.28
_cell_length_b         13.28
_cell_length_c         15.21
_cell_angle_alpha     90
_cell_angle_beta      90
_cell_angle_gamma     120


# setting 
# _symmetry_space_group_name_H-M 'P63/mmc'


loop_
_symmetry_equiv_pos_as_xyz
'x,y,z'
'x-y,x,z+1/2'
'y,-x+y,z+1/2'
'-y,x-y,z'
'-x+y,-x,z'
'x-y,-y,-z'
'-x,-x+y,-z'
'-x,-y,z+1/2'
'y,x,-z'
'-y,-x,-z+1/2'
'-x+y,y,-z+1/2'
'x,x-y,-z+1/2'
'-x,-y,-z'
'-x+y,-x,-z-1/2'
'-y,x-y,-z-1/2'
'y,-x+y,-z'
'x-y,x,-z'
'-x+y,y,z'
'x,x-y,z'
'x,y,-z-1/2'
'-y,-x,z'
'y,x,z-1/2'
'x-y,-y,z-1/2'
'-x,-x+y,z-1/2'


loop_
_atom_site_label
_atom_site_type_sumbol
_atom_site_fract_x
_atom_site_fract_y
_atom_site_fract_z
_atom_site_occupancy
_atom_site_U_iso_or_equiv
SI1 Si 0.233 0.0 0.0 0.739 0.0114
SI2 Si 0.425 0.093 0.146 0.739 0.0304
AL1 Al 0.233 0.0 0.0 0.261 0.0114
AL2 Al 0.425 0.093 0.146 0.261 0.0304
O1 O 0.309 -0.003 0.088 1.0 0.0101
O2 O 0.212 0.106 0.006 1.0 0.0063
O3 O 0.478 0.239 0.117 1.0 0.0405
O4 O 0.399 0.081 0.25 1.0 0.0329
O5 O 0.536 0.072 0.106 1.0 0.0253
H2O1 O2-(H2O) 0.6667 0.3333 -0.003 0.87 0.0633
H2O2 O2-(H2O) 0.461 -0.078 0.25 0.5 0.0253
H2O3 O2-(H2O) 0.454 0.227 -0.122 0.91 0.0633
H2O4 O2-(H2O) 0.0 0.0 -0.184 1.19 0.0076
H2O5 O2-(H2O) 0.068 0.136 0.75 0.7 0.0114
H2O6 O2-(H2O) 0.35 0.175 0.75 1.21 0.0633
H2O7 O2-(H2O) 0.708 0.354 -0.073 0.49 0.0266




