data_Na-exchanged_K-F
_cell_length_a         10.056
_cell_length_b         10.056
_cell_length_c         6.68
_cell_angle_alpha     90
_cell_angle_beta      90
_cell_angle_gamma     90


# setting 
_symmetry_space_group_name_H-M 'P-421m'


loop_
_symmetry_equiv_pos_as_xyz
'x,y,z'
'y,-x,-z'
'-y,x,-z'
'x+1/2,-y+1/2,-z'
'-x+1/2,y+1/2,-z'
'-x,-y,z'
'-y+1/2,-x+1/2,z'
'y+1/2,x+1/2,z'


loop_
_atom_site_label
_atom_site_type_symbol
_atom_site_fract_x
_atom_site_fract_y
_atom_site_fract_z
_atom_site_occupancy
_atom_site_U_iso_or_equiv
NA1 Na 0.242 0.258 -0.059 0.78 0.0241
NA21 Na -0.101 0.399 0.324 0.92 0.0329
NA22 Na 0.0 0.5 0.325 0.60 0.0051
SI1 Si 0.0 0.0 0.0 0.5 0.0570
SI2 Si 0.127 0.134 0.375 0.5 0.0127
AL1 Al 0.0 0.0 0.0 0.5 0.0570
AL2 Al 0.127 0.134 0.375 0.5 0.0127
O1 O 0.099 0.093 0.133 1.0 0.0342
O2 O -0.018 0.184 0.466 1.0 0.0469
O3 O 0.240 0.260 0.389 1.0 0.0114
H2O4 O2-(H2O) 0.147 0.353 -0.272 0.50 0.0215
H2O5 O2-(H2O) 0.112 0.387 -0.054 0.52 0.0228
H2O6 O2-(H2O) 0.0 0.5 -0.181 0.36 0.0228




