data_SSZ-45_ERS-18
_cell_length_a        13.7195
_cell_length_b        35.2245
_cell_length_c        22.1362
_cell_angle_alpha    90.00
_cell_angle_beta     90.00
_cell_angle_gamma    90.00


# setting 
_symmetry_space_group_name_H-M 'Fmm2'


loop_
_symmetry_equiv_pos_as_xyz
'x,y,z'
'-x,-y,z'
'-x,y,z'
'x,-y,z'
'x,y+1/2,z+1/2'
'-x,-y+1/2,z+1/2'
'-x,y+1/2,z+1/2'
'x,-y+1/2,z+1/2'
'x+1/2,y,z+1/2'
'-x+1/2,-y,z+1/2'
'-x+1/2,y,z+1/2'
'x+1/2,-y,z+1/2'
'x+1/2,y+1/2,z'
'-x+1/2,-y+1/2,z'
'-x+1/2,y+1/2,z'
'x+1/2,-y+1/2,z'


loop_
_atom_site_label
_atom_site_type_symbol
_atom_site_fract_x
_atom_site_fract_y
_atom_site_fract_z
_atom_site_occupancy
_atom_site_U_iso_or_equiv
Si1 Si 0 0 0.2089 1 0.0290
Si2 Si 0.2106 0 0.1842 1 0.0290
Si3 Si 0 0.06988 0.2996 1 0.0290
Si4 Si 0.1988 0.07150 0.3732 1 0.0290
Si5 Si 0 0.14727 0.2240 1 0.0290
Si6 Si 0.2111 0.14266 0.1775 1 0.0290
Si7 Si 0 0.22151 0.3074 1 0.0290
Si8 Si 0.1943 0.21137 0.3797 1 0.0290
Si9 Si 0.1132 0.17422 0.4985 1 0.0290
Si10 Si 0 0.28401 0.2069 1 0.0290
Si11 Si 0.1834 0.28612 0.1225 1 0.0290
Si12 Si 0 0.35517 0.2836 1 0.0290
Si13 Si 0.2098 0.35444 0.3139 1 0.0290
Si14 Si 0 0.42186 0.2017 1 0.0290
Si15 Si 0.1930 0.42704 0.1279 1 0.0290
Si16 Si 0.1131 0.41700 0.0025 1 0.0290
Si17 Si 0 0.5 0.2641 1 0.0290
Si18 Si 0.2102 0.5 0.3187 1 0.0290
O1 O 0.1806 0.1875 0.4419 1 0.0253
O2 O 0 0.32806 0.2254 1 0.0253
O3 O 0.2418 0.46370 0.1550 1 0.0253
O4 O 0 0.3984 0.2630 1 0.0253
O5 O 0.0962 0 0.1678 1 0.0253
O6 O 0.25 0.25 0.3924 1 0.0253
O7 O 0.2527 0.31838 0.1475 1 0.0253
O8 O 0.1241 0.37105 0.0098 1 0.0253
O9 O 0.2296 0 0.2561 1 0.0253
O10 O 0 0.1812 0.4826 1 0.0253
O11 O 0.0967 0.2751 0.1686 1 0.0253
O12 O 0.0956 0.0656 0.3402 1 0.0253
O13 O 0 0.0693 0.4962 1 0.0253
O14 O 0.0958 0.4153 0.1630 1 0.0253
O15 O 0.2327 0.1078 0.1323 1 0.0253
O16 O 0.0928 0.2227 0.3500 1 0.0253
O17 O 0.1627 0.4377 0.0598 1 0.0253
O18 O 0.2380 0.3621 0.2434 1 0.0253
O19 O 0.0949 0.1470 0.1827 1 0.0253
O20 O 0 0.11021 0.2658 1 0.0253
O21 O 0.2468 0.11195 0.3555 1 0.0253
O22 O 0 0.46487 0.2201 1 0.0253
O23 O 0.2503 0.31345 0.3315 1 0.0253
O24 O 0.1769 0.0700 0.4445 1 0.0253
O25 O 0.0944 0.3513 0.3242 1 0.0253
O26 O 0.25 0.25 0.1112 1 0.0253
O27 O 0.2314 0.46305 0.3580 1 0.0253
O28 O 0.1402 0.3017 0.0588 1 0.0253
O29 O 0 0.2589 0.2667 1 0.0253
O30 O 0.0950 0.5 0.3059 1 0.0253
O31 O 0 0.03701 0.2503 1 0.0253
O32 O 0 0.1843 0.2658 1 0.0253
C1 C 0 0.1586 0.02247 1 0.0633
C2 C 0.0904 0.18206 0.0084 1 0.0633
C3 C 0.0552 0.2226 0.0133 1 0.0633
C4 C 0.0888 0.09804 0.0254 1 0.0633
C5 C 0.0872 0.05542 0.0126 1 0.0633
C6 C 0 0.1108 -0.06580 1 0.0633
C7 C 0 0.0672 -0.07804 1 0.0633
N1 N 0 0.11735 0.00102 1 0.0633
N2 N 0 0.0460 -0.02146 1 0.0633
H1 H 0 0.1578 0.071 1 0.0760
H2a H 0.143 0.1779 0.0442 1 0.0760
H2b H 0.122 0.1765 -0.0349 1 0.0760
H3a H 0.082 0.2388 -0.024 1 0.0760
H3b H 0.080 0.2341 0.0558 1 0.0760
H4a H 0.093 0.1023 0.0738 1 0.0760
H4b H 0.1527 0.1100 0.004 1 0.0760
H5a H 0.1512 0.0477 -0.014 1 0.0760
H5b H 0.0874 0.0400 0.0548 1 0.0760
H6 H -0.065 0.1234 -0.0855 1 0.0760
H7 H -0.0652 0.0597 -0.1036 1 0.0760




