data_EMC-2_Partially_Dehydrated
_cell_length_a         17.3741
_cell_length_b         17.3741
_cell_length_c         28.3646
_cell_angle_alpha     90
_cell_angle_beta      90
_cell_angle_gamma     120


# setting 
# _symmetry_space_group_name_H-M 'P63/mmc'


loop_
_symmetry_equiv_pos_as_xyz
'x,y,z'
'x-y,x,z+1/2'
'y,-x+y,z+1/2'
'-y,x-y,z'
'-x+y,-x,z'
'x-y,-y,-z'
'-x,-x+y,-z'
'-x,-y,z+1/2'
'y,x,-z'
'-y,-x,-z+1/2'
'-x+y,y,-z+1/2'
'x,x-y,-z+1/2'
'-x,-y,-z'
'-x+y,-x,-z-1/2'
'-y,x-y,-z-1/2'
'y,-x+y,-z'
'x-y,x,-z'
'-x+y,y,z'
'x,x-y,z'
'x,y,-z-1/2'
'-y,-x,z'
'y,x,z-1/2'
'x-y,-y,z-1/2'
'-x,-x+y,z-1/2'


loop_
_atom_site_label
_atom_site_type_sumbol
_atom_site_fract_x
_atom_site_fract_y
_atom_site_fract_z
_atom_site_occupancy
_atom_site_U_iso_or_equiv
SI1 Si 0.370 0.096 0.018 0.792 0.0170
AL1 Al 0.370 0.096 0.018 0.208 0.0170
SI2 Si 0.429 0.037 0.108 0.792 0.0170
AL2 Al 0.429 0.037 0.108 0.208 0.0170
SI3 Si 0.488 0.155 -0.070 0.792 0.0170
AL3 Al 0.488 0.155 -0.070 0.208 0.0170
SI4 Si 0.489 0.154 0.195 0.792 0.0170
AL4 Al 0.489 0.154 0.195 0.208 0.0170
O1 O 0.459 0.130 -0.015 1.0 0.0141
O2 O 0.288 0.0 0.0 1.0 0.0141
O3 O 0.333 0.167 0.015 1.0 0.0141
O4 O 0.396 0.088 0.073 1.0 0.0141
O5 O 0.427 0.069 0.162 1.0 0.0141
O6 O 0.361 -0.071 0.105 1.0 0.0141
O7 O 0.531 0.063 0.093 1.0 0.0141
O8 O 0.473 0.236 -0.087 1.0 0.0141
O9 O 0.594 0.188 -0.075 1.0 0.0141
O10 O 0.478 0.239 0.179 1.0 0.0141
O11 O 0.592 0.183 0.186 1.0 0.0141
O12 O 0.460 0.127 0.25 1.0 0.0141
O13 O 0.409 0.591 0.25 1.0 0.0629
O14 O 0.561 0.781 0.205 0.5 0.0629
O15 O 0.103 0.206 0.094 0.5 0.0629
O16 O 0.170 0.085 0.137 0.5 0.0629
C1 C 0.498 0.630 0.235 0.75 0.0629
C2 C 0.511 0.689 0.192 0.75 0.0629
C3 C 0.176 0.190 0.149 1.0 0.0629
H2O1 O2-(H2O) 0.717 0.283 0.073 0.667 0.0629
H2O2 O2-(H2O) 0.333 -0.333 0.003 0.65 0.0629
H2O3 O2-(H2O) 0.106 0.007 0.044 0.5 0.0629
Na1 Na 0.333 0.667 0.111 0.5 0.0380
Na2 Na 0.667 0.333 0.156 0.5 0.0380
Na3 Na 0.344 0.172 0.110 0.5 0.0380
Na4 Na 0.0 0.0 0.132 0.5 0.0380
Na5 Na 0.333 0.667 0.25 1.0 0.0380
Na6 Na -0.404 0.192 0.034 0.5 0.0380




