data_TNU-7
_cell_length_a        7.5789
_cell_length_b        18.089
_cell_length_c        25.853
_cell_angle_alpha    90.0
_cell_angle_beta     90.0
_cell_angle_gamma    90.0


# setting 2
# _symmetry_space_group_name_H-M 'Pmmn'


loop_
_symmetry_equiv_pos_as_xyz
'x,y,z'
'x+1/2,-y,-z'
'-x,y+1/2,-z'
'-x+1/2,-y+1/2,z'
'-x,-y,-z'
'-x-1/2,y,z'
'x,-y-1/2,z'
'x-1/2,y-1/2,-z'


loop_
_atom_site_label
_atom_site_type_sumbol
_atom_site_fract_x
_atom_site_fract_y
_atom_site_fract_z
_atom_site_occupancy
_atom_site_U_iso_or_equiv
Si1 Si -0.2500 0.1666 -0.0016 0.794 0.0003
Si2 Si -0.2500 0.0774 0.1062 0.794 0.0003
Si3 Si -0.2500 0.1585 0.2092 0.794 0.0003
Si4 Si 0.034 0.1631 -0.0884 0.794 0.0003
Si5 Si 0.040 -0.0223 0.1452 0.794 0.0003
Si6 Si 0.041 0.0569 0.2510 0.794 0.0003
Si7 Si 0.2500 0.1619 0.3936 0.794 0.0003
Si8 Si 0.2500 0.1632 0.5168 0.794 0.0003
Si9 Si -0.046 0.0512 0.3603 0.794 0.0003
Si10 Si 0.051 -0.0550 0.4527 0.794 0.0003
Ga1 Ga -0.2500 0.1666 -0.0016 0.206 0.0003
Ga2 Ga -0.2500 0.0774 0.1062 0.206 0.0003
Ga3 Ga -0.2500 0.1585 0.2092 0.206 0.0003
Ga4 Ga 0.034 0.1631 -0.0884 0.206 0.0003
Ga5 Ga 0.040 -0.0223 0.1452 0.206 0.0003
Ga6 Ga 0.041 0.0569 0.2510 0.206 0.0003
Ga7 Ga 0.2500 0.1619 0.3936 0.206 0.0003
Ga8 Ga 0.2500 0.1632 0.5168 0.206 0.0003
Ga9 Ga -0.046 0.0512 0.3603 0.206 0.0003
Ga10 Ga 0.051 -0.0550 0.4527 0.206 0.0003
O1 O -0.2500 0.2500 0.022 1 0.0004
O2 O -0.2500 0.110 0.0472 1 0.0004
O3 O -0.2500 0.147 0.1464 1 0.0004
O4 O -0.2500 0.2500 0.210 1 0.0004
O5 O -0.078 0.141 -0.0356 1 0.0004
O6 O -0.065 0.0308 0.1049 1 0.0004
O7 O -0.074 0.1324 0.2415 1 0.0004
O8 O -0.019 0.2500 -0.103 1 0.0004
O9 O -0.017 0.0004 0.2044 1 0.0004
O10 O 0.2500 0.156 -0.078 1 0.0004
O11 O 0.2500 -0.009 0.131 1 0.0004
O12 O 0.2500 0.081 0.253 1 0.0004
O13 O -0.011 0.1122 -0.1400 1 0.0004
O14 O -0.020 0.012 0.3033 1 0.0004
O15 O 0.2500 0.2500 0.381 1 0.0004
O16 O 0.2500 0.2500 0.532 1 0.0004
O17 O 0.2500 0.149 0.4554 1 0.0004
O18 O 0.072 0.1266 0.3669 1 0.0004
O19 O 0.077 0.1286 0.5464 1 0.0004
O20 O 0.039 -0.013 0.3965 1 0.0004
O21 O 0.0000 0.0000 0.5000 1 0.0004
O22 O -0.2500 0.071 0.376 1 0.0004
O23 O -0.2500 0.088 0.532 1 0.0004
Na1 Na 0.0000 0.0000 0.0000 0.5 0.0003
Na2 Na 0.2500 0.068 0.755 0.5 0.0003
Na3 Na 0.2500 0.072 0.040 0.5 0.0003
Na4 Na 0.2500 0.2500 0.284 0.5 0.0003
Na5 Na 0.2500 0.7500 0.707 0.5 0.0003
Na6 Na 0.036 0.2500 0.306 0.5 0.0003
Na7 Na 0.2500 0.7500 0.467 0.5 0.0003




