data_ERS-7_Framework
_cell_length_a        9.7998
_cell_length_b        12.4116
_cell_length_c        22.8606
_cell_angle_alpha    90.0
_cell_angle_beta     90.0
_cell_angle_gamma    90.0


# setting 
# _symmetry_space_group_name_H-M 'Pnma'


loop_
_symmetry_equiv_pos_as_xyz
'x,y,z'
'x+1/2,-y+1/2,-z+1/2'
'-x,y+1/2,-z'
'-x+1/2,-y,z+1/2'
'-x,-y,-z'
'-x-1/2,y-1/2,z-1/2'
'x,-y-1/2,z'
'x-1/2,y,-z-1/2'


loop_
_atom_site_label
_atom_site_type_sumbol
_atom_site_fract_x
_atom_site_fract_y
_atom_site_fract_z
_atom_site_occupancy
_atom_site_U_iso_or_equiv
Si1 Si 0.3402 0.8726 0.8634 1.0 0.0250
Si2 Si 0.6431 0.8742 0.5312 1.0 0.0250
Si3 Si 0.885 0.5148 0.9184 1.0 0.0231
Si4 Si 0.1522 0.8753 0.6532 1.0 0.0270
Si5 Si 0.9631 0.1242 0.809 1.0 0.0170
Si6 Si 0.2262 0.4812 0.7616 1.0 0.0190
O1 O 0.3061 0.75 0.8436 1.0 0.0370
O2 O 0.2695 0.8974 0.9252 1.0 0.0400
O3 O 0.4999 0.8899 0.8714 1.0 0.0420
O4 O 0.2792 0.953 0.8154 1.0 0.0770
O5 O 0.639 0.75 0.5129 1.0 0.0360
O6 O 0.6641 0.9451 0.473 1.0 0.0360
O7 O 0.5035 0.902 0.5622 1.0 0.0431
O8 O 0.9441 0.4377 0.8693 1.0 0.0540
O9 O 0.7618 0.5839 0.8935 1.0 0.0439
O10 O 0.1818 0.75 0.669 1.0 0.0629
O11 O 0.1698 0.5614 0.7136 1.0 0.0840
O12 O 0.9527 0.25 0.8208 1.0 0.0400
O13 O 0.3481 0.4091 0.7358 1.0 0.0490
O14 O 0.1074 0.4034 0.7828 1.0 0.0610




