data_ECR-34
_cell_length_a        21.030
_cell_length_b        21.030
_cell_length_c        8.530 
_cell_angle_alpha    90.0
_cell_angle_beta     90.0
_cell_angle_gamma    120.0


# setting 
_symmetry_space_group_name_H-M 'P63mc'


loop_
_symmetry_equiv_pos_as_xyz
'x,y,z'
'x-y,x,z+1/2'
'y,-x+y,z+1/2'
'-y,x-y,z'
'-x+y,-x,z'
'-x,-y,z+1/2'
'-x+y,y,z'
'x,x-y,z'
'-y,-x,z'
'y,x,z+1/2'
'x-y,-y,z+1/2'
'-x,-x+y,z+1/2'


loop_
_atom_site_label
_atom_site_type_symbol
_atom_site_fract_x
_atom_site_fract_y
_atom_site_fract_z
_atom_site_occupancy
_atom_site_U_iso_or_equiv
Si1 Si 0.745051 0.105905 0.016454 0.760000 0.0172
Si2 Si 0.667197 0.184656 0.151020 0.760000 0.0172
Si3 Si 0.641642 0.972046 0.228717 0.760000 0.0172
Si4 Si 0.614316 0.073991 0.442533 0.760000 0.0172
Ga1 Ga 0.745051 0.105905 0.016454 0.240000 0.0172
Ga2 Ga 0.667197 0.184656 0.151020 0.240000 0.0172
Ga3 Ga 0.641642 0.972046 0.228717 0.240000 0.0172
Ga4 Ga 0.614316 0.073991 0.442533 0.240000 0.0172
O1 O 0.744666 0.073572 0.837685 1.000000 0.0205
O2 O 0.830570 0.169430 0.062038 1.000000 0.0205
O3 O 0.690915 0.142401 0.014308 1.000000 0.0205
O4 O 0.715897 0.042160 0.156056 1.000000 0.0205
O5 O 0.725315 0.274653 0.146153 1.000000 0.0205
O6 O 0.583880 0.167856 0.098776 1.000000 0.0205
O7 O 0.662541 0.147879 0.329352 1.000000 0.0205
O8 O 0.584426 0.915693 0.092594 1.000000 0.0205
O9 O 0.595002 -0.00019 0.338508 1.000000 0.0205
O10 O 0.534151 0.068391 0.491326 1.000000 0.0205
K1 K 0.544904 0.455098 0.848571 0.616313 0.0823
K2 K 0.384429 0.192215 0.539995 0.863687 0.1231




