data_o-FDBDM-ZSM-50
_cell_length_a        13.726
_cell_length_b        22.171
_cell_length_c        20.254
_cell_angle_alpha    90.0
_cell_angle_beta     90.0
_cell_angle_gamma    90.0


# setting 
_symmetry_space_group_name_H-M 'Cmma'


loop_
_symmetry_equiv_pos_as_xyz
'x,y,z'
'x,-y,-z'
'-x+1/2,y,-z'
'-x+1/2,-y,z'
'-x,-y,-z'
'-x,y,z'
'x-1/2,-y,z'
'x-1/2,y,-z'
'x+1/2,y+1/2,z'
'x+1/2,-y+1/2,-z'
'-x+1,y+1/2,-z'
'-x+1,-y+1/2,z'
'-x+1/2,-y+1/2,-z'
'-x+1/2,y+1/2,z'
'x,-y+1/2,z'
'x,y+1/2,-z'


loop_
_atom_site_label
_atom_site_type_symbol
_atom_site_fract_x
_atom_site_fract_y
_atom_site_fract_z
_atom_site_occupancy
_atom_site_U_iso_or_equiv
Si1 Si 0.2113 0.43268 0.31343 1 0.0210
Si2 Si 0.3135 0.37443 0.43591 1 0.0223
Si3 Si 0.3862 0.25 0.3846 1 0.0256
Si4 Si 0.3886 0.25 0.2335 1 0.0262
Si5 Si 0.3103 0.37435 0.1917 1 0.0210
Si6 Si 0.2129 0.43262 0.07141 1 0.0213
Si7a Si 0 0.4673 0.0687 1 0.0401
Si8a Si 0 0.547 0.2006 0.5 0.0199
Si9a Si 0 0.4728 0.3269 0.5 0.0160
Si10 Si 0 0.5463 0.4581 0.5 0.0229
Si8b Si 0 0.55 0.1813 0.5 0.0289
Si9b Si 0 0.4705 0.3044 0.5 0.0280
Si11 Si 0 0.5745 0.4298 0.5 0.0219
F1 F 0.443 0.317 0.279 0.25 0.0609
O1 O 0.25 0.5 0.306 1 0.0570
O2 O 0.0946 0.4312 0.3178 1 0.0380
O3 O 0.2409 0.3941 0.2513 1 0.0560
O4 O 0.2544 0.4021 0.377 1 0.0709
O5 O 0.3393 0.3068 0.4204 1 0.0640
O6 O 0.5 0.25 0.3968 1 0.0629
O7 O 0.3595 0.25 0.3093 1 0.0640
O8 O 0.3325 0.3047 0.1969 1 0.0470
O9 O 0.2531 0.3849 0.1238 1 0.0380
O10 O 0.4062 0.4134 0.1921 1 0.0699
O11 O 0.25 0.5 0.0892 1 0.0309
O12 O 0.25 0.3757 0.5 1 0.0670
O13 O 0.4074 0.4128 0.4491 1 0.0699
O14 O 0.0957 0.4287 0.0732 1 0.0389
O15 O 0.5 0.25 0.2153 1 0.0679
O16 O 0.25 0.4132 0 1 0.0339
O17 O 0 0.5157 0.0193 0.5 0.0489
O18 O 0 0.5275 0.1052 0.5 0.0350
O19 O 0 0.4931 0.1511 0.5 0.0550
O20 O 0 0.4914 0.23 0.5 0.0499
O21 O 0 0.5261 0.2755 0.5 0.0579
O22 O 0 0.5297 0.3522 0.5 0.0360
O23 O 0 0.4887 0.4733 0.5 0.0489
O24 O 0 0.4986 0.3997 0.5 0.0509
N1 N 0 0.25 0.1878 1 0.0389
C1 C 0 0.3042 0.244 0.5 0.0239
C2 C 0.088 0.2788 0.1894 0.5 0.0339
C3 C 0 0.301 0.125 0.5 0.0339
C31 C 0 0.2765 0.312 0.5 0.0219
C32 C 0.088 0.25 0.3433 1 0.0609
C33 C 0.0885 0.25 0.4068 1 0.0509
C34 C 0 0.25 0.439 1 0.1697
C41 C 0 0.25 0.063 1 0.0769
C42 C 0.0874 0.25 0.0297 1 0.0399
C43 C 0.086 0.2825 -0.029 0.5 0.0409
F42 F 0.159 0.25 0.056 0.5 0.1900




