data_EMM-23
_cell_length_a        19.7480
_cell_length_b        19.7480
_cell_length_c        13.8585
_cell_angle_alpha    90.00
_cell_angle_beta     90.00
_cell_angle_gamma    120.00


# setting 
_symmetry_space_group_name_H-M 'P31c'


loop_
_symmetry_equiv_pos_as_xyz
'x,y,z'
'-y,x-y,z'
'-x+y,-x,z'
'y,x,z+1/2'
'x-y,-y,z+1/2'
'-x,-x+y,z+1/2'


loop_
_atom_site_label
_atom_site_type_symbol
_atom_site_fract_x
_atom_site_fract_y
_atom_site_fract_z
_atom_site_occupancy
_atom_site_U_iso_or_equiv
Si1 Si 0.9200 0.4535 0.595 1.00 0.0092
Si2 Si 0.7864 0.2844 0.622 1.00 0.0092
Si3 Si 0.7012 0.1332 0.510 1.00 0.0092
Si4 Si 0.7860 0.0413 0.757 0.33 0.0092
Si5 Si 0.9177 0.4457 1.005 1.00 0.0092
Si6 Si 0.7855 0.2793 0.983 1.00 0.0092
Si7 Si 0.6906 0.1279 0.096 1.00 0.0092
Si8 Si 0.7708 0.1874 0.799 1.00 0.0092
Si9 Si 0.5899 0.0753 0.803 1.00 0.0092
Si10 Si 0.3875 0.3145 0.303 1.00 0.0092
Si11 Si 0.7331 0.9995 0.547 0.67 0.0092
Si12 Si 0.66667 0.33333 0.697 1.00 0.0092
Si13 Si 0.66667 0.33333 0.923 1.00 0.0092
O1 O 0.8973 0.5112 0.541 1.00 0.0237
O2 O 0.930 0.4706 0.708 1.00 0.0237
O3 O 0.8586 0.3632 0.582 1.00 0.0237
O4 O 0.7207 0.3012 0.659 1.00 0.0237
O5 O 0.752 0.2227 0.537 1.00 0.0237
O6 O 0.8109 0.2448 0.707 1.00 0.0237
O7 O 0.709 0.1285 0.394 1.00 0.0237
O8 O 0.7394 0.0842 0.556 1.00 0.0237
O9 O 0.780 0.989 0.636 0.67 0.0237
O9" O 0.785 0.044 0.640 0.33 0.0274
O11 O 0.8846 0.4940 0.060 1.00 0.0274
O12 O 0.920 0.4623 0.893 1.00 0.0274
O13 O 0.8629 0.3535 1.020 1.00 0.0274
O14 O 0.7179 0.2976 0.964 1.00 0.0274
O15 O 0.7583 0.2153 0.070 1.00 0.0274
O16 O 0.8061 0.2416 0.894 1.00 0.0274
O17 O 0.689 0.1218 0.210 1.00 0.0274
O18 O 0.7067 0.0648 1.045 1.00 0.0274
O19 O 0.783 0.008 0.951 0.67 0.0274
O20 O 0.8588 0.031 0.789 0.33 0.0274
O21 O 0.0004 0.4662 0.550 1.00 0.0274
O22 O 0.7378 0.0330 0.293 1.00 0.0274
O23 O 0.6784 0.1470 0.797 1.00 0.0274
O24 O 0.8000 0.1238 0.799 1.00 0.0274
O25 O 0.5868 0.9940 0.816 1.00 0.0274
O26 O 0.66667 0.33333 0.810 1.00 0.0274
C1 C 0.686 0.691 0.299 0.33 0.0382
N1 N 0.748 0.743 0.225 0.33 0.0382
C2 C 0.776 0.691 0.175 0.33 0.0382
C3 C 0.766 0.696 0.065 0.33 0.0382
C4 C 0.727 0.748 0.049 0.33 0.0382
C5 C 0.713 0.772 0.149 0.33 0.0382
C6 C 0.817 0.810 0.276 0.33 0.0382
C7 C 0.848 0.778 0.354 0.33 0.0382
C8 C 0.827 0.789 0.456 0.33 0.0382
C9 C 0.714 0.637 0.341 0.33 0.0382
C10 C 0.653 0.551 0.329 0.33 0.0382
C11 C 0.682 0.503 0.275 0.33 0.0382
C12 C 0.652 0.421 0.318 0.33 0.0382
N2 N 0.651 0.344 0.299 0.33 0.0382
C13 C 0.635 0.299 0.394 0.33 0.0382
C14 C 0.569 0.215 0.372 0.33 0.0382
C15 C 0.538 0.214 0.268 0.33 0.0382
C16 C 0.588 0.297 0.225 0.33 0.0382
C17 C 0.731 0.362 0.260 0.33 0.0382
C18 C 0.816 0.385 0.241 0.33 0.0382
C19 C 0.851 0.358 0.319 0.33 0.0382
C1" C 1.038 0.213 0.628 0.17 0.0382
N1" N 1.019 0.213 0.525 0.17 0.0382
C2" C 0.941 0.208 0.503 0.17 0.0382
C3" C 0.956 0.263 0.414 0.17 0.0382
C4" C 1.046 0.298 0.388 0.17 0.0382
C5" C 1.083 0.267 0.460 0.17 0.0382
C6" C 1.048 0.178 0.454 0.17 0.0382
C7" C 0.986 0.095 0.424 0.17 0.0382
C8" C 0.998 0.074 0.322 0.17 0.0382
C9" C 1.042 0.281 0.686 0.17 0.0382
C10" C 1.093 0.299 0.777 0.17 0.0382
C11" C 1.045 0.272 0.870 0.17 0.0382
C12" C 1.010 0.184 0.889 0.17 0.0382
N2" N 1.007 0.168 0.998 0.17 0.0382
C13" C 1.087 0.223 1.042 0.17 0.0382
C14" C 1.074 0.277 0.972 0.17 0.0382
C15" C 0.985 0.252 0.97 0.17 0.0382
C16" C 0.944 0.181 1.045 0.17 0.0382
C17" C 0.987 0.084 1.014 0.17 0.0382
C18" C 0.98 0.066 1.122 0.17 0.0382
C19" C 0.958 -0.019 1.143 0.17 0.0382
Ow1 O 0.075 0.130 0.483 0.50 0.1494
Ow2 O 0.980 1.044 0.241 0.33 0.1494
Ow3 O 0.912 0.941 0.346 0.33 0.1494




