data_EMM-3
_cell_length_a        10.3132
_cell_length_b        12.6975
_cell_length_c        21.8660
_cell_angle_alpha    89.656
_cell_angle_beta     90.0
_cell_angle_gamma    90.0


# setting 
_symmetry_space_group_name_H-M 'I2/m11'


loop_
_symmetry_equiv_pos_as_xyz
'x,y,z'
'x,-y,-z'
'-x,-y,-z'
'-x,y,z'
'x+1/2,y+1/2,z+1/2'
'x+1/2,-y+1/2,-z+1/2'
'-x+1/2,-y+1/2,-z+1/2'
'-x+1/2,y+1/2,z+1/2'


loop_
_atom_site_label
_atom_site_type_symbol
_atom_site_fract_x
_atom_site_fract_y
_atom_site_fract_z
_atom_site_occupancy
_atom_site_U_iso_or_equiv
Al1 Al 0.2247 0.3744 0.11190 1.0 0.0119
Al2 Al 0.0 0.5563 0.65436 1.0 0.0119
Al3 Al 0.0 0.8722 0.79486 1.0 0.0119
Al4 Al 0.0 0.8762 0.43411 1.0 0.0119
Al5 Al 0.2190 0.5 0.5 1.0 0.0119
P6 P 0.7784 0.1322 0.11182 1.0 0.0119
P7 P 0.0 0.6216 0.79177 1.0 0.0119
P8 P 0.0 0.6292 0.43220 1.0 0.0119
P9 P 0.0 0.9457 0.66029 1.0 0.0119
P10 P 0.7767 0.0 0.5 1.0 0.0119
O11 O 0.0 0.5584 0.73316 1.0 0.0110
O12 O 0.0 0.7391 0.7734 1.0 0.0110
O13 O 0.0 0.5766 0.3683 1.0 0.0110
O14 O 0.0 0.7454 0.4179 1.0 0.0110
O15 O 0.1950 0.7550 0.91026 1.0 0.0110
O16 O 0.0 0.9520 0.72943 1.0 0.0110
O17 O 0.0 0.9430 0.3667 1.0 0.0110
O18 O 0.1984 0.4528 0.05108 1.0 0.0110
O19 O 0.1196 0.4071 0.17172 1.0 0.0110
O20 O 0.3813 0.3856 0.13894 1.0 0.0110
O21 O 0.8785 0.4039 0.53492 1.0 0.0110
O22 O 0.8097 0.0611 0.05700 1.0 0.0110
O23 O 0.8573 0.1001 0.16663 1.0 0.0110
O24 O 0.6346 0.1171 0.1242 1.0 0.0110
O25 O 0.1348 0.0904 0.5230 1.0 0.0110




