data_Farneseite
_cell_length_a        12.8784
_cell_length_b        12.8784
_cell_length_c        37.0078
_cell_angle_alpha    90.0
_cell_angle_beta     90.0
_cell_angle_gamma    120.0


# setting 
# _symmetry_space_group_name_H-M 'P63/m'


loop_
_symmetry_equiv_pos_as_xyz
'x,y,z'
'x-y,x,z+1/2'
'y,-x+y,z+1/2'
'-y,x-y,z'
'-x+y,-x,z'
'-x,-y,z+1/2'
'-x,-y,-z'
'-x+y,-x,-z-1/2'
'-y,x-y,-z-1/2'
'y,-x+y,-z'
'x-y,x,-z'
'x,y,-z-1/2'


loop_
_atom_site_label
_atom_site_type_sumbol
_atom_site_fract_x
_atom_site_fract_y
_atom_site_fract_z
_atom_site_occupancy
_atom_site_U_iso_or_equiv
Al1 Al 0.6692 0.0828 0.4659 1 0.0160
Al2 Al 0.2524 0.0028 0.3922 1 0.0140
Al3 Al 0.5897 -0.0868 0.3213 1 0.0110
Al4 Al 0.2523 -0.0051 0.25 1 0.0100
Si1 Si 0.3371 -0.0813 0.3213 1 0.0110
Si2 Si 0.7505 -0.0015 0.3934 1 0.0130
Si3 Si 0.4151 0.0832 0.4649 1 0.0140
Si4 Si 0.2524 0.2507 0.25 1 0.0100
S1 S 0 0 0.5 1 0.0550
S2 S 0.666667 0.333333 0.3794 1 0.0340
S3 S 0.666667 0.333333 0.25 1 0.0340
S4 S 0.333333 0.666667 0.4247 0.134 0.0500
K1 K 0.4372 0.219 0.318 0.912 0.0350
Na1A Na 0.5054 0.007 0.3927 0.864 0.0140
Na1B Na 0.524 0.047 0.3887 0.292 0.0300
Na1C Na 0.476 -0.058 0.4015 0.102 0.0390
Na2A Na 0.333333 0.666667 0.3036 0.249 0.1040
Na2B Na 0.333333 0.666667 0.3479 0.465 0.0500
Na3A Na 0.68 -0.1605 0.4649 0.451 0.0380
Na3B Na 0.597 -0.2044 0.4543 0.235 0.0430
Na3C Na 0.736 -0.1318 0.4718 0.357 0.0360
Na4A Na 0 0 0.3832 0.105 0.0290
Na4B Na 0 0 0.4144 0.805 0.0570
Na5A Na 0 0 0.25 0.120 0.0110
Na5B Na 0 0 0.2652 0.468 0.0380
Na6 Na 0.5143 0.0227 0.25 1.050 0.0350
Ca1 Ca 0.666667 0.333333 0.4798 0.760 0.0310
O1 O 0.324 -0.0134 0.3561 1 0.0440
O2 O 0.6847 0.0187 0.4268 1 0.0490
O3 O 0.7839 0.2269 0.4734 1 0.0420
O4 O 0.2387 -0.2218 0.3203 1 0.0270
O5 O 0.4662 -0.0702 0.3251 1 0.0500
O6 O 0.5417 0.0902 0.462 1 0.0440
O7 O 0.6657 -0.0189 0.3603 1 0.0480
O8 O 0.6668 0.0002 0.5025 1 0.0420
O9 O 0.3477 0.0316 0.4282 1 0.0410
O10 O 0.3341 -0.0132 0.2862 1 0.0390
O11 O 0.7841 -0.1015 0.25 1 0.0240
O12 O 0.2611 0.1324 0.25 1 0.0480
O13 O 0.2209 0.1157 0.3873 1 0.0620
O14 O 0.6708 -0.0068 0.2842 1 0.0480
O15 O 0.7573 -0.119 0.403 1 0.0450
O30 O 0.666667 0.333333 0.4196 1 0.0630
O31 O 0.6074 0.2101 0.3665 1 0.0600
O32 O 0.666667 0.333333 0.2835 1 0.0500
O33 O 0.5994 0.2156 0.2661 1 0.0500
O34 O 0.4018 -0.2033 0.4094 1 0.0770
O35 O 0.333333 0.666667 0.4604 1 0.0500
O36 O 0.8998 -0.0076 0.4803 1 0.0500
Cl1 Cl 0.3176 -0.3024 0.4306 0.216 0.0500
W1 O2-(H2O) 0.36 -0.407 0.25 0.266 0.0500
W2 O2-(H2O) 0 0 0.3238 0.357 0.0500




