data_Ultrastable_Y_Dehydrated_Dealuminated
_cell_length_a        24.188
_cell_length_b        24.188
_cell_length_c        24.188
_cell_angle_alpha    90
_cell_angle_beta     90
_cell_angle_gamma    90


# setting 2
_symmetry_space_group_name_H-M 'Fd-3m'


loop_
_symmetry_equiv_pos_as_xyz
'x,y,z'
'x+1/4,-z,y+1/4'
'x+1/4,z+1/4,-y'
'z+1/4,y+1/4,-x'
'-z,y+1/4,x+1/4'
'-y,x+1/4,z+1/4'
'y+1/4,-x,z+1/4'
'z,x,y'
'y,z,x'
'-y+1/4,-z+1/4,x'
'z,-x+1/4,-y+1/4'
'-y+1/4,z,-x+1/4'
'-z+1/4,-x+1/4,y'
'-z+1/4,x,-y+1/4'
'y,-z+1/4,-x+1/4'
'x,-y+1/4,-z+1/4'
'-x+1/4,y,-z+1/4'
'-x+1/4,-y+1/4,z'
'y+1/4,x+1/4,-z'
'-y,-x,-z'
'z+1/4,-y,x+1/4'
'-z,-y,-x'
'-x,z+1/4,y+1/4'
'-x,-z,-y'
'-x,-y,-z'
'-x-1/4,z,-y-1/4'
'-x-1/4,-z-1/4,y'
'-z-1/4,-y-1/4,x'
'z,-y-1/4,-x-1/4'
'y,-x-1/4,-z-1/4'
'-y-1/4,x,-z-1/4'
'-z,-x,-y'
'-y,-z,-x'
'y-1/4,z-1/4,-x'
'-z,x-1/4,y-1/4'
'y-1/4,-z,x-1/4'
'z-1/4,x-1/4,-y'
'z-1/4,-x,y-1/4'
'-y,z-1/4,x-1/4'
'-x,y-1/4,z-1/4'
'x-1/4,-y,z-1/4'
'x-1/4,y-1/4,-z'
'-y-1/4,-x-1/4,z'
'y,x,z'
'-z-1/4,y,-x-1/4'
'z,y,x'
'x,-z-1/4,-y-1/4'
'x,z,y'
'x,y+1/2,z+1/2'
'x+1/4,-z+1/2,y+3/4'
'x+1/4,z+3/4,-y+1/2'
'z+1/4,y+3/4,-x+1/2'
'-z,y+3/4,x+3/4'
'-y,x+3/4,z+3/4'
'y+1/4,-x+1/2,z+3/4'
'z,x+1/2,y+1/2'
'y,z+1/2,x+1/2'
'-y+1/4,-z+3/4,x+1/2'
'z,-x+3/4,-y+3/4'
'-y+1/4,z+1/2,-x+3/4'
'-z+1/4,-x+3/4,y+1/2'
'-z+1/4,x+1/2,-y+3/4'
'y,-z+3/4,-x+3/4'
'x,-y+3/4,-z+3/4'
'-x+1/4,y+1/2,-z+3/4'
'-x+1/4,-y+3/4,z+1/2'
'y+1/4,x+3/4,-z+1/2'
'-y,-x+1/2,-z+1/2'
'z+1/4,-y+1/2,x+3/4'
'-z,-y+1/2,-x+1/2'
'-x,z+3/4,y+3/4'
'-x,-z+1/2,-y+1/2'
'-x,-y+1/2,-z+1/2'
'-x-1/4,z+1/2,-y+1/4'
'-x-1/4,-z+1/4,y+1/2'
'-z-1/4,-y+1/4,x+1/2'
'z,-y+1/4,-x+1/4'
'y,-x+1/4,-z+1/4'
'-y-1/4,x+1/2,-z+1/4'
'-z,-x+1/2,-y+1/2'
'-y,-z+1/2,-x+1/2'
'y-1/4,z+1/4,-x+1/2'
'-z,x+1/4,y+1/4'
'y-1/4,-z+1/2,x+1/4'
'z-1/4,x+1/4,-y+1/2'
'z-1/4,-x+1/2,y+1/4'
'-y,z+1/4,x+1/4'
'-x,y+1/4,z+1/4'
'x-1/4,-y+1/2,z+1/4'
'x-1/4,y+1/4,-z+1/2'
'-y-1/4,-x+1/4,z+1/2'
'y,x+1/2,z+1/2'
'-z-1/4,y+1/2,-x+1/4'
'z,y+1/2,x+1/2'
'x,-z+1/4,-y+1/4'
'x,z+1/2,y+1/2'
'x+1/2,y,z+1/2'
'x+3/4,-z,y+3/4'
'x+3/4,z+1/4,-y+1/2'
'z+3/4,y+1/4,-x+1/2'
'-z+1/2,y+1/4,x+3/4'
'-y+1/2,x+1/4,z+3/4'
'y+3/4,-x,z+3/4'
'z+1/2,x,y+1/2'
'y+1/2,z,x+1/2'
'-y+3/4,-z+1/4,x+1/2'
'z+1/2,-x+1/4,-y+3/4'
'-y+3/4,z,-x+3/4'
'-z+3/4,-x+1/4,y+1/2'
'-z+3/4,x,-y+3/4'
'y+1/2,-z+1/4,-x+3/4'
'x+1/2,-y+1/4,-z+3/4'
'-x+3/4,y,-z+3/4'
'-x+3/4,-y+1/4,z+1/2'
'y+3/4,x+1/4,-z+1/2'
'-y+1/2,-x,-z+1/2'
'z+3/4,-y,x+3/4'
'-z+1/2,-y,-x+1/2'
'-x+1/2,z+1/4,y+3/4'
'-x+1/2,-z,-y+1/2'
'-x+1/2,-y,-z+1/2'
'-x+1/4,z,-y+1/4'
'-x+1/4,-z-1/4,y+1/2'
'-z+1/4,-y-1/4,x+1/2'
'z+1/2,-y-1/4,-x+1/4'
'y+1/2,-x-1/4,-z+1/4'
'-y+1/4,x,-z+1/4'
'-z+1/2,-x,-y+1/2'
'-y+1/2,-z,-x+1/2'
'y+1/4,z-1/4,-x+1/2'
'-z+1/2,x-1/4,y+1/4'
'y+1/4,-z,x+1/4'
'z+1/4,x-1/4,-y+1/2'
'z+1/4,-x,y+1/4'
'-y+1/2,z-1/4,x+1/4'
'-x+1/2,y-1/4,z+1/4'
'x+1/4,-y,z+1/4'
'x+1/4,y-1/4,-z+1/2'
'-y+1/4,-x-1/4,z+1/2'
'y+1/2,x,z+1/2'
'-z+1/4,y,-x+1/4'
'z+1/2,y,x+1/2'
'x+1/2,-z-1/4,-y+1/4'
'x+1/2,z,y+1/2'
'x+1/2,y+1/2,z'
'x+3/4,-z+1/2,y+1/4'
'x+3/4,z+3/4,-y'
'z+3/4,y+3/4,-x'
'-z+1/2,y+3/4,x+1/4'
'-y+1/2,x+3/4,z+1/4'
'y+3/4,-x+1/2,z+1/4'
'z+1/2,x+1/2,y'
'y+1/2,z+1/2,x'
'-y+3/4,-z+3/4,x'
'z+1/2,-x+3/4,-y+1/4'
'-y+3/4,z+1/2,-x+1/4'
'-z+3/4,-x+3/4,y'
'-z+3/4,x+1/2,-y+1/4'
'y+1/2,-z+3/4,-x+1/4'
'x+1/2,-y+3/4,-z+1/4'
'-x+3/4,y+1/2,-z+1/4'
'-x+3/4,-y+3/4,z'
'y+3/4,x+3/4,-z'
'-y+1/2,-x+1/2,-z'
'z+3/4,-y+1/2,x+1/4'
'-z+1/2,-y+1/2,-x'
'-x+1/2,z+3/4,y+1/4'
'-x+1/2,-z+1/2,-y'
'-x+1/2,-y+1/2,-z'
'-x+1/4,z+1/2,-y-1/4'
'-x+1/4,-z+1/4,y'
'-z+1/4,-y+1/4,x'
'z+1/2,-y+1/4,-x-1/4'
'y+1/2,-x+1/4,-z-1/4'
'-y+1/4,x+1/2,-z-1/4'
'-z+1/2,-x+1/2,-y'
'-y+1/2,-z+1/2,-x'
'y+1/4,z+1/4,-x'
'-z+1/2,x+1/4,y-1/4'
'y+1/4,-z+1/2,x-1/4'
'z+1/4,x+1/4,-y'
'z+1/4,-x+1/2,y-1/4'
'-y+1/2,z+1/4,x-1/4'
'-x+1/2,y+1/4,z-1/4'
'x+1/4,-y+1/2,z-1/4'
'x+1/4,y+1/4,-z'
'-y+1/4,-x+1/4,z'
'y+1/2,x+1/2,z'
'-z+1/4,y+1/2,-x-1/4'
'z+1/2,y+1/2,x'
'x+1/2,-z+1/4,-y-1/4'
'x+1/2,z+1/2,y'


loop_
_atom_site_label
_atom_site_type_symbol
_atom_site_fract_x
_atom_site_fract_y
_atom_site_fract_z
_atom_site_occupancy
_atom_site_U_iso_or_equiv
Si1 Si 0.1257 0.9460 0.0359 0.9153 0.0393
Al1 Al 0.1257 0.9460 0.0359 0.0847 0.0393
Al2 Al 0.1250 0.1250 0.1250 0.7 0.0380
O1 O 0.1076 -0.1076 0.0000 1.0 0.0570
O2 O 0.2539 0.2539 0.1406 1.0 0.0570
O3 O 0.1747 0.1747 0.9634 1.0 0.0570
O4 O 0.1798 0.1798 0.3217 1.0 0.0570
O5 O 0.085 0.085 0.085 0.7 0.0380




