data_Ferrierite_Siliceous
_cell_length_a         14.07025
_cell_length_b         7.41971
_cell_length_c         18.720
_cell_angle_alpha     90
_cell_angle_beta      90
_cell_angle_gamma     90


# setting 
_symmetry_space_group_name_H-M 'Pnnm'


loop_
_symmetry_equiv_pos_as_xyz
'x,y,z'
'x+1/2,-y+1/2,-z+1/2'
'-x+1/2,y+1/2,-z+1/2'
'-x,-y,z'
'-x,-y,-z'
'-x-1/2,y-1/2,z-1/2'
'x-1/2,-y-1/2,z-1/2'
'x,y,-z'


loop_
_atom_site_label
_atom_site_type_symbol
_atom_site_fract_x
_atom_site_fract_y
_atom_site_fract_z
_atom_site_occupancy
_atom_site_U_iso_or_equiv
SI1 Si 0.0 0.0 0.15462 1.0 0.0120
SI2 Si -0.0012 0.2905 0.27439 1.0 0.0130
SI3 Si 0.19990 0.0037 0.08373 1.0 0.0160
SI4 Si 0.2029 0.2255 0.33150 1.0 0.0160
SI5 Si 0.7950 0.1894 0.68200 1.0 0.0060
O1 O 0.0 0.5 0.2479 1.0 0.0250
O2 O 0.0099 0.1788 0.2027 1.0 0.0380
O3 O 0.0899 0.0016 0.1039 1.0 0.0290
O4 O 0.7804 -0.0202 0.6560 1.0 0.0239
O5 O 0.2090 0.0377 0.0 1.0 0.0110
O6 O 0.2494 0.2851 0.2580 1.0 0.0310
O7 O 0.2403 0.1829 0.1248 1.0 0.0210
O8 O 0.7393 0.1675 0.8994 1.0 0.0370
O9 O 0.0879 0.2462 0.3291 1.0 0.0280
O10 O 0.9040 0.2477 0.6846 1.0 0.0280




