data_Amicite
_cell_length_a         10.226
_cell_length_b         10.422
_cell_length_c         9.884
_cell_angle_alpha     90
_cell_angle_beta      88.315
_cell_angle_gamma     90


# setting 
_symmetry_space_group_name_H-M 'I121'


loop_
_symmetry_equiv_pos_as_xyz
'x,y,z'
'-x,y,-z'
'x+1/2,y+1/2,z+1/2'
'-x+1/2,y+1/2,-z+1/2'


loop_
_atom_site_label
_atom_site_type_symbol
_atom_site_fract_x
_atom_site_fract_y
_atom_site_fract_z
_atom_site_occupancy
_atom_site_U_iso_or_equiv
NA Na 0.4312 0.2559 0.6716 0.9 0.0320
K1 K 0.3071 -0.0040 0.9692 0.94 0.0265
SI1 Si 0.1523 -0.0133 0.3261 1.0 0.0058
SI2 Si 0.1534 0.2615 0.8263 1.0 0.0051
AL1 Al 0.1546 0.2491 0.1546 1.0 0.0054
AL2 Al 0.1582 0.0027 0.6512 1.0 0.0056
O1 O 0.0010 -0.0471 0.3037 1.0 0.0153
O2 O -0.0030 0.2956 0.2047 1.0 0.0144
O3 O 0.2031 0.1401 0.7354 1.0 0.0122
O4 O 0.1810 0.0304 0.4785 1.0 0.0149
O5 O 0.1712 0.2264 0.9833 1.0 0.0143
O6 O 0.1989 0.1018 0.2263 1.0 0.0127
O7 O 0.2620 0.3610 0.2184 1.0 0.0138
O8 O 0.7558 0.3812 0.2177 1.0 0.0092
H2O1 O2-(H2O) 0.3435 0.2507 0.4539 0.85 0.0336
H2O2 O2-(H2O) 0.4779 0.0682 0.2179 0.85 0.0350
H2O3 O2-(H2O) 0.0 0.3191 0.5 1.0 0.0342
H2O4 O2-(H2O) 0.5 0.4729 0.5 0.53 0.0298




