data_Di-n-propylamine_MAPO-43
_cell_length_a         10.2192
_cell_length_b         10.2198
_cell_length_c         10.0126
_cell_angle_alpha     90
_cell_angle_beta      90
_cell_angle_gamma     90.987


# setting 
# _symmetry_space_group_name_H-M 'I112/b'


loop_
_symmetry_equiv_pos_as_xyz
'x,y,z'
'-x,-y+1/2,z'
'-x,-y,-z'
'x,y-1/2,-z'
'x+1/2,y+1/2,z+1/2'
'-x+1/2,-y+1,z+1/2'
'-x+1/2,-y+1/2,-z+1/2'
'x+1/2,y,-z+1/2'


loop_
_atom_site_label
_atom_site_type_sumbol
_atom_site_fract_x
_atom_site_fract_y
_atom_site_fract_z
_atom_site_occupancy
_atom_site_U_iso_or_equiv
AL2 Al 0.14938 0.10057 0.12505 1.0 0.0223
P1 P 0.34269 0.09267 0.37490 1.0 0.0218
O1 O 0.1756 0.2667 0.0794 1.0 0.0426
O2 O 0.4833 0.0742 0.3297 1.0 0.0427
O3 O 0.2514 0.0604 0.2608 1.0 0.0515
O4 O 0.3101 0.0016 0.4896 1.0 0.0515
N1 N 0.001 -0.018 0.434 0.125 0.0141
H1 H -0.077 -0.007 0.384 0.125 0.0141
H2 H 0.075 -0.001 0.378 0.125 0.0141
C1 C 0.009 -0.391 0.418 0.125 0.0141
H3 H 0.007 -0.451 0.345 0.125 0.0141
H4 H -0.065 -0.408 0.474 0.125 0.0141
H5 H 0.087 -0.402 0.469 0.125 0.0141
C2 C 0.04 -0.250 0.366 0.125 0.0130
H6 H 0.078 -0.233 0.310 0.125 0.0130
H7 H -0.074 -0.239 0.366 0.125 0.0130
C3 C 0.006 -0.154 0.484 0.125 0.0410
H8 H 0.084 -0.165 0.534 0.125 0.0410
H9 H -0.068 -0.170 0.540 0.125 0.0410
C4 C 0.004 0.075 0.547 0.125 0.1399
H10 H -0.070 0.058 0.603 0.125 0.1399
H11 H 0.082 0.063 0.597 0.125 0.1399
C5 C -0.001 0.216 0.495 0.125 0.0410
H12 H 0.073 0.233 0.439 0.125 0.0410
H13 H -0.079 0.227 0.445 0.125 0.0410
C6 C 0.001 0.312 0.613 0.125 0.1299
H14 H -0.002 0.400 0.581 0.125 0.1299
H15 H 0.079 0.301 0.663 0.125 0.1299
H16 H -0.073 0.295 0.669 0.125 0.1299
N2 N 0.232 0.754 0.319 0.125 0.1399
H17 H 0.246 0.679 0.373 0.125 0.1399
H18 H 0.247 0.831 0.370 0.125 0.1399
C7 C -0.141 0.765 0.332 0.125 0.1399
H19 H -0.200 0.771 0.405 0.125 0.1399
H20 H -0.160 0.689 0.282 0.125 0.1399
H21 H -0.150 0.840 0.277 0.125 0.1399
C8 C 0.000 0.760 0.386 0.125 0.1600
H22 H 0.009 0.685 0.441 0.125 0.1600
H23 H 0.019 0.837 0.436 0.125 0.1600
C9 C 0.097 0.752 0.268 0.125 0.0390
H24 H 0.085 0.824 0.210 0.125 0.0390
H25 H 0.081 0.672 0.220 0.125 0.0390
C10 C 0.325 0.754 0.205 0.125 0.1399
H26 H 0.307 0.679 0.150 0.125 0.1399
H27 H 0.315 0.831 0.154 0.125 0.1399
C11 C 0.466 0.748 0.258 0.125 0.0390
H28 H 0.482 0.819 0.317 0.125 0.0390
H29 H 0.478 0.668 0.304 0.125 0.0390
C12 C 0.563 0.756 0.140 0.125 0.1600
H30 H 0.650 0.753 0.173 0.125 0.1600
H31 H 0.551 0.836 0.094 0.125 0.1600
H32 H 0.547 0.685 0.081 0.125 0.1600




