data_Giuseppettite
_cell_length_a        12.856
_cell_length_b        12.856
_cell_length_c        42.256
_cell_angle_alpha    90.0
_cell_angle_beta     90.0
_cell_angle_gamma    120.0


# setting 
_symmetry_space_group_name_H-M 'P31c'


loop_
_symmetry_equiv_pos_as_xyz
'x,y,z'
'-y,x-y,z'
'-x+y,-x,z'
'y,x,z+1/2'
'x-y,-y,z+1/2'
'-x,-x+y,z+1/2'


loop_
_atom_site_label
_atom_site_type_symbol
_atom_site_fract_x
_atom_site_fract_y
_atom_site_fract_z
_atom_site_occupancy
_atom_site_U_iso_or_equiv
Si1 Si 0.2527 0.001 -0.0229 1 0.0160
Si2 Si 0.4149 0.0846 -0.7732 1 0.0149
Si3 Si -0.5829 -0.6642 -0.0856 1 0.0170
Si4 Si -0.5851 -0.6673 0.5398 1 0.0170
Si5 Si 0.4135 0.0856 0.1025 1 0.0190
Si6 Si 0.4145 0.0836 -0.6484 1 0.0190
Si7 Si -0.5862 -0.6676 -0.2103 1 0.0160
Si8 Si -0.586 -0.6678 0.6647 1 0.0160
Al1 Al -0.2528 0.0005 -0.0229 1 0.0210
Al2 Al -0.4157 -0.0745 0.7268 1 0.0210
Al3 Al 0.5842 0.6656 0.0408 1 0.0220
Al4 Al 0.5876 0.6699 -0.5854 1 0.0220
Al5 Al -0.4164 -0.0756 -0.1482 1 0.0170
Al6 Al -0.4176 -0.0751 0.6025 1 0.0170
Al7 Al 0.5849 0.6621 0.1653 1 0.0190
Al8 Al 0.5857 0.6623 -0.7103 1 0.0190
O1 O 0.4058 0.2077 0.2217 1 0.0360
O2 O 0.4342 0.5526 0.1623 1 0.0310
O3 O -0.4473 -0.5663 -0.2123 1 0.0310
O4 O 0.341 -0.013 0.0756 1 0.0420
O5 O -0.353 -0.011 -0.1133 1 0.0410
O6 O -0.344 0.012 0.5711 1 0.0410
O7 O 0.357 0.033 -0.6118 1 0.0420
O8 O 0.453 0.539 0.0323 1 0.0540
O9 O -0.448 -0.551 -0.0811 1 0.0540
O10 O 0.553 0.1213 0.1025 1 0.0310
O11 O -0.5711 -0.1257 -0.1499 1 0.0310
O12 O 0.1264 -0.1163 -0.031 1 0.0439
O13 O -0.115 0.111 -0.0204 1 0.0439
O14 O 0.4012 0.203 0.0985 1 0.0439
O15 O -0.4089 -0.2039 -0.1506 1 0.0439
O16 O 0.557 0.1241 0.2261 1 0.0360
O17 O 0.303 -0.011 0.0131 1 0.0480
O18 O -0.322 0.013 -0.0536 1 0.0521
O19 O -0.314 0.011 0.5113 1 0.0521
O20 O 0.335 -0.021 -0.5472 1 0.0480
O21 O 0.5969 0.7996 0.1629 1 0.0480
O22 O 0.4065 0.2054 0.7874 1 0.0480
O23 O 0.677 0.644 0.1377 1 0.0480
O24 O -0.652 -0.664 -0.1784 1 0.0431
O25 O -0.662 -0.651 0.6371 1 0.0431
O26 O 0.653 0.67 -0.6729 1 0.0480
O27 O 0.645 0.663 0.2019 1 0.0339
O28 O -0.661 -0.658 -0.2387 1 0.0550
O29 O -0.65 -0.661 0.6964 1 0.0550
O30 O 0.676 0.642 -0.7374 1 0.0339
O31 O 0.562 0.7837 0.042 1 0.0640
O32 O -0.569 -0.78 -0.0912 1 0.0640
S1 S 0 0 0.0557 1 0.0650
OA1 O 0 0 0.0245 1 0.1009
OB1 O -0.058 -0.122 0.0669 1 0.0830
S2 S 0 0 0.6684 1 0.0570
OA2 O 0.034 0.084 0.641 0.333 0.0700
OB2 O -0.117 -0.058 0.678 1 0.1270
S3 S 0 0 -0.7118 1 0.0640
OA3 O 0.955 0.879 -0.6953 0.333 0.0560
OB3 O 0.11 0.048 -0.7361 1 0.0819
S4 S 0 0 -0.1013 1 0.0580
OA4 O 0.079 0.067 -0.071 0.333 0.1399
OB4 O 0.076 0.129 -0.1161 1 0.1700
Cl5 Cl 0.628 0.333 0.0064 1 0.1101
S5 S 0.666667 0.333333 0.024 1 0.1399
OA5 O 0.604 0.278 -0.009 0.333 0.0100
OB5 O 0.531 0.265 0.0301 1 0.0270
Cl6 Cl 0.333333 0.666667 -0.076 1 0.1800
S6 S 0.333333 0.666667 -0.057 1 0.0909
OA6 O 0.398 0.786 -0.0341 0.333 0.0700
OB6 O 0.271 0.541 -0.072 1 0.1101
Ca11 Ca 0 0 -0.0187 0.325 0.0239
Na11 Na 0.333333 0.666667 0.1487 0.6 0.0420
Ca12 Ca 0 0 -0.034 0.325 0.0239
Na12 Na 0.333333 0.666667 0.1575 0.4 0.0420
K1 K 0.115 -0.1158 0.1072 0.74 0.0450
Na1 Na -0.3104 -0.1545 0.5433 1 0.0370
K2 K 0.7709 0.8844 0.2287 1 0.0470
K3 K -0.7695 -0.8851 -0.1503 0.95 0.0660
Na3 Na 0.849 0.6906 -0.7082 1 0.0339
Na1 Na -0.3104 -0.1545 0.5433 1 0.0370
Na2 Na 0.8475 0.6912 0.1679 1 0.0370
Na3 Na 0.849 0.6906 -0.7082 1 0.0339
Na41 Na 0.316 0.159 -0.5865 0.167 0.0439
Ca41 Ca 0.316 0.159 -0.5865 0.333 0.0439
Na42 Na 0.397 0.203 -0.5778 0.167 0.0439
Ca42 Ca 0.397 0.203 -0.5778 0.333 0.0439
Na51 Na 0.666667 0.333333 0.2198 0.5 0.0370
Na52 Na 0.666667 0.333333 0.2095 0.5 0.0370
Na6 Na 0.666667 0.333333 0.0852 1 0.0719
Na71 Na 0.333333 0.666667 -0.1318 0.5 0.0280
Na72 Na 0.333333 0.666667 -0.1527 0.5 0.0280
Na8 Na 0.666667 0.333333 -0.2234 1 0.0500
Na91 Na 0.666667 0.333333 -0.0616 0.6 0.0360
Na92 Na 0.666667 0.333333 -0.092 0.4 0.0360
Na11 Na 0.333333 0.666667 0.1487 0.6 0.0420
Na12 Na 0.333333 0.666667 0.1575 0.4 0.0420
Na21 Na 0.498 0.506 0.9762 0.5 0.0239
Na22 Na 0.536 0.464 0.9841 0.5 0.0239
Na31 Na 0.333333 0.666667 0.0234 0.6 0.0380
Na32 Na 0.333333 0.666667 0.0066 0.4 0.0380
W1 O 0.666667 0.333333 -0.147 1 0.1001
W2 O 0.333333 0.666667 0.103 1 0.1001
W3 O 0.666667 0.333333 -0.278 1 0.1001
W4 O 0.666667 0.333333 0.293 1 0.1001
W5 O 0.333333 0.666667 -0.339 1 0.1001




