data_GUS-1
_cell_length_a        16.4206
_cell_length_b        20.0540
_cell_length_c        5.0464
_cell_angle_alpha    90.0
_cell_angle_beta     90.0
_cell_angle_gamma    90.0


# setting 
_symmetry_space_group_name_H-M 'C222'


loop_
_symmetry_equiv_pos_as_xyz
'x,y,z'
'x,-y,-z'
'-x,y,-z'
'-x,-y,z'
'x+1/2,y+1/2,z'
'x+1/2,-y+1/2,-z'
'-x+1/2,y+1/2,-z'
'-x+1/2,-y+1/2,z'


loop_
_atom_site_label
_atom_site_type_symbol
_atom_site_fract_x
_atom_site_fract_y
_atom_site_fract_z
_atom_site_occupancy
_atom_site_U_iso_or_equiv
Si1 Si 0.3074 0.1879 0.478 1.0 0.0250
Si2 Si 0.1818 0.0767 0.527 1.0 0.0250
Si3 Si 0.0937 0.1222 0.016 1.0 0.0250
Si4 Si 0.0964 0.2819 -0.002 1.0 0.0250
O1 O 0.3549 0.1874 0.754 1.0 0.0300
O2 O 0.384 0.2092 0.307 1.0 0.0300
O3 O 0.25 0.25 0.522 1.0 0.0300
O4 O 0.2644 0.1170 0.477 1.0 0.0300
O5 O 0.1537 0.0785 0.834 1.0 0.0300
O6 O 0.212 0.0 0.5 1.0 0.0300
O7 O 0.1151 0.1023 0.317 1.0 0.0300
O8 O 0.0 0.1006 0.0 1.0 0.0300
O9 O 0.1021 0.2021 -0.013 1.0 0.0300
O10 O 0.0 0.297 0.0 1.0 0.0300




