data_Clinoptilolite
_cell_length_a         17.662
_cell_length_b         17.911
_cell_length_c         7.407
_cell_angle_alpha     90
_cell_angle_beta      116.40
_cell_angle_gamma     90


# setting 
_symmetry_space_group_name_H-M 'C12/m1'


loop_
_symmetry_equiv_pos_as_xyz
'x,y,z'
'-x,y,-z'
'-x,-y,-z'
'x,-y,z'
'x+1/2,y+1/2,z'
'-x+1/2,y+1/2,-z'
'-x+1/2,-y+1/2,-z'
'x+1/2,-y+1/2,z'


loop_
_atom_site_label
_atom_site_type_symbol
_atom_site_fract_x
_atom_site_fract_y
_atom_site_fract_z
_atom_site_occupancy
_atom_site_U_iso_or_equiv
NA1 Na 0.1428 0.0 0.667 0.36 0.0695
NA2 Na 0.0393 0.5 0.210 0.10 0.0396
K3 K 0.2413 0.5 0.049 0.44 0.0646
MG4 Mg 0.0 0.0 0.5 0.10 0.0139
CA1 Ca 0.1428 0.0 0.667 0.06 0.0695
CA2 Ca 0.0393 0.5 0.210 0.25 0.0396
SI1 Si 0.17906 0.16943 0.0963 0.83 0.0136
SI2 Si 0.21334 0.41099 0.5040 0.69 0.0139
SI3 Si 0.20846 0.19034 0.7153 0.87 0.0128
SI4 Si 0.06623 0.29837 0.4148 0.89 0.0138
SI5 Si 0.0 0.21651 0.0 0.9 0.0141
AL1 Al 0.17906 0.16943 0.0963 0.17 0.0136
AL2 Al 0.21334 0.41099 0.5040 0.31 0.0139
AL3 Al 0.20846 0.19034 0.7153 0.13 0.0128
AL4 Al 0.06623 0.29837 0.4148 0.11 0.0138
AL5 Al 0.0 0.21651 0.0 0.1 0.0141
O1 O 0.1959 0.5 0.4574 1.0 0.0303
O2 O 0.2336 0.1204 0.6144 1.0 0.0313
O3 O 0.1850 0.1551 0.8559 1.0 0.0334
O4 O 0.2333 0.1041 0.2509 1.0 0.0300
O5 O 0.0 0.3232 0.5 1.0 0.0334
O6 O 0.0808 0.1627 0.0555 1.0 0.0248
O7 O 0.1268 0.2317 0.5492 1.0 0.0386
O8 O 0.0122 0.2702 0.1856 1.0 0.0314
O9 O 0.2123 0.2520 0.1860 1.0 0.0293
O10 O 0.1188 0.3718 0.4148 1.0 0.0306
H2O1 O2-(H2O) 0.211 0.500 -0.033 0.38 0.0785
H2O2 O2-(H2O) 0.084 0.0 0.888 0.44 0.1849
H2O3 O2-(H2O) 0.0777 0.4206 0.964 1.0 0.1203
H2O4 O2-(H2O) 0.0 0.5 0.5 1.0 0.0937
H2O5 O2-(H2O) 0.0 0.095 0.5 0.76 0.2799
H2O6 O2-(H2O) 0.073 0.0 0.249 0.84 0.2419
H2O7 O2-(H2O) 0.096 0.0 0.756 0.42 0.1292




