data_SSZ-87 (as-synthesized)
_cell_length_a        21.1877
_cell_length_b        17.8254
_cell_length_c        12.2959
_cell_angle_alpha    90.00
_cell_angle_beta     124.79
_cell_angle_gamma    90.00


# setting 
# _symmetry_space_group_name_H-M 'C2/m'


loop_
_symmetry_equiv_pos_as_xyz
'x,y,z'
'-x,y,-z'
'-x,-y,-z'
'x,-y,z'
'x+1/2,y+1/2,z'
'-x+1/2,y+1/2,-z'
'-x+1/2,-y+1/2,-z'
'x+1/2,-y+1/2,z'


loop_
_atom_site_label
_atom_site_type_sumbol
_atom_site_fract_x
_atom_site_fract_y
_atom_site_fract_z
_atom_site_occupancy
_atom_site_U_iso_or_equiv
Si1 Si 0.22493 0.00000 0.01560 1.000 0.0060
Si2 Si 0.37394 0.00000 0.30351 1.000 0.0060
Si3 Si 0.47789 0.00000 0.19310 1.000 0.0060
Si4 Si 0.41246 0.15552 0.44673 1.000 0.0060
Si5 Si 0.29536 0.25563 0.21029 1.000 0.0060
Si6 Si 0.32860 0.34059 0.03332 1.000 0.0060
Si7 Si 0.45115 0.24517 0.05263 0.809 0.0060
Si8 Si 0.16884 0.34395 0.18376 0.682 0.0060
Si9 Si 0.06804 0.34492 0.28594 1.000 0.0060
Si10 Si 0.17276 0.50000 0.09660 1.000 0.0060
O1 O 0.28823 0.00000 0.1722 1.000 0.0127
O2 O 0.38572 0.07319 0.3875 1.000 0.0127
O3 O 0.43500 0.00000 0.26626 1.000 0.0127
O4 O 0.41313 0.00000 0.0361 1.000 0.0127
O5 O 0.36584 0.21766 0.3375 1.000 0.0127
O6 O 0.50000 0.1670 0.50000 1.000 0.0127
O7 O 0.24414 0.29644 0.2497 1.000 0.0127
O8 O 0.32892 0.31638 0.15956 1.000 0.0127
O9 O 0.24555 0.19199 0.1015 1.000 0.0127
O10 O 0.32940 0.42910 0.0251 1.000 0.0127
O11 O 0.40642 0.31495 0.0518 1.000 0.0127
O12 O 0.50000 0.2689 0.00000 1.000 0.0127
O13 O 0.1899 0.42762 0.1850 1.000 0.0127
O14 O 0.13767 0.3360 0.27152 1.000 0.0127
O15 O 0.10695 0.31828 0.0380 1.000 0.0127
O16 O 0.00486 0.28179 0.1992 1.000 0.0127
O17 O 0.09948 0.3322 0.43731 1.000 0.0127
O18 O 0.03198 0.42725 0.2400 1.000 0.0127
O19 O 0.23355 0.50000 0.05940 1.000 0.0127
B7 B 0.45115 0.24517 0.05263 0.191 0.0060
B8 B 0.16884 0.34395 0.18376 0.318 0.0060
N1 N 0.37725 0.46026 0.5996 0.500 0.0836
C1 C 0.4710 0.55186 0.4372 0.500 0.0836
C2 C 0.4423 0.4736 0.3798 0.500 0.0836
C3 C 0.49054 0.43058 0.6073 0.500 0.0836
C4 C 0.46289 0.4729 0.6806 0.500 0.0836
C5 C 0.35458 0.4659 0.4588 0.500 0.0836
C6 C 0.42080 0.42991 0.4608 0.500 0.0836
C7 C 0.35992 0.38121 0.6257 0.500 0.0836
C8 C 0.32891 0.3869 0.7090 0.500 0.0836
C9 C 0.33735 0.5182 0.6303 0.500 0.0836
C10 C 0.32830 0.59091 0.5579 0.500 0.0836
C11 C 0.38545 0.5345 0.7804 0.500 0.0836
H1A H 0.4474 0.5963 0.390 0.500 0.1001
H2A H 0.3991 0.479 0.2898 0.500 0.1001
H3A H 0.5054 0.3809 0.639 0.500 0.1001
H4A H 0.4880 0.4568 0.7708 0.500 0.1001
H4B H 0.4734 0.524 0.6796 0.500 0.1001
H5A H 0.3512 0.514 0.4342 0.500 0.1001
H5B H 0.3083 0.4415 0.4003 0.500 0.1001
H6A H 0.4080 0.3800 0.4290 0.500 0.1001
H7A H 0.4054 0.3527 0.671 0.500 0.1001
H7B H 0.3231 0.3560 0.546 0.500 0.1001
H8A H 0.2751 0.3894 0.6525 0.500 0.1001
H8B H 0.3441 0.3461 0.7634 0.500 0.1001
H8C H 0.3482 0.4306 0.7614 0.500 0.1001
H9A H 0.2867 0.5 0.6009 0.500 0.1001
H10A H 0.3036 0.6283 0.580 0.500 0.1260
H10B H 0.3782 0.6096 0.583 0.500 0.1260
H10C H 0.2984 0.5798 0.468 0.500 0.1260
H11A H 0.4365 0.5500 0.8099 0.500 0.1260
H11B H 0.3607 0.5733 0.7968 0.500 0.1260
H11C H 0.3900 0.490 0.8292 0.500 0.1260




