data_ITQ-52 (calcined)
_cell_length_a        21.4008
_cell_length_b        17.9064
_cell_length_c        12.3678
_cell_angle_alpha    90.00
_cell_angle_beta     125.09
_cell_angle_gamma    90.00


# setting 
_symmetry_space_group_name_H-M 'C2/m'


loop_
_symmetry_equiv_pos_as_xyz
'x,y,z'
'-x,y,-z'
'-x,-y,-z'
'x,-y,z'
'x+1/2,y+1/2,z'
'-x+1/2,y+1/2,-z'
'-x+1/2,-y+1/2,-z'
'x+1/2,-y+1/2,z'


loop_
_atom_site_label
_atom_site_type_symbol
_atom_site_fract_x
_atom_site_fract_y
_atom_site_fract_z
_atom_site_occupancy
_atom_site_U_iso_or_equiv
O1 O 0.5941 0.3101 0.4307 1.0000 0.0500
O2 O 0.9873 0.7156 0.3025 1.0000 0.0500
O3 O 0.3991 0.8178 0.4579 1.0000 0.0500
O4 O 0.9022 0.3332 0.0622 1.0000 0.0500
O5 O 0.0271 0.5721 0.7361 1.0000 0.0500
O6 O 0.1439 0.3487 0.7840 1.0000 0.0500
O7 O 0.8852 0.5724 0.8869 1.0000 0.0500
O8 O 0.1342 0.2841 0.1698 1.0000 0.0500
O9 O 0.1963 0.4279 0.6785 1.0000 0.0500
O10 O 0.2423 0.7097 0.7475 1.0000 0.0500
O11 O 0.1751 0.8260 0.3351 1.0000 0.0500
O12 O 0.1692 0.0698 0.4726 1.0000 0.0500
O13 O 0.7540 0.8050 0.4103 1.0000 0.0500
O14 O 0.5000 0.2866 0.5000 1.0000 0.0500
O15 O 0.5000 0.8350 0.0000 1.0000 0.0500
O16 O 0.9175 0.5000 0.5309 1.0000 0.0500
O17 O 0.4230 0.0000 0.7476 1.0000 0.0500
O18 O 0.7235 0.0000 0.5310 1.0000 0.0500
O19 O 0.7800 0.5000 0.6827 1.0000 0.0500
Si1 Si 0.1726 0.8420 0.4603 1.0000 0.0395
Si2 Si 0.0464 0.2512 0.4482 1.0000 0.0395
Si3 Si 0.2060 0.7564 0.2966 1.0000 0.0395
Si4 Si 0.0707 0.3498 0.7890 1.0000 0.0395
Si5 Si 0.0878 0.3452 0.0557 1.0000 0.0395
Si6 Si 0.1703 0.6546 0.6857 1.0000 0.0395
Si7 Si 0.3284 0.0000 0.4138 1.0000 0.0395
Si8 Si 0.6305 0.0000 0.2007 1.0000 0.0395
Si9 Si 0.7750 0.0000 0.4755 1.0000 0.0395
Si10 Si 0.9735 0.5000 0.6896 1.0000 0.0395




