data_ITQ-32
_cell_length_a        13.6988
_cell_length_b        24.0665
_cell_length_c        18.1968
_cell_angle_alpha    90.0
_cell_angle_beta     90.0
_cell_angle_gamma    90.0


# setting 
_symmetry_space_group_name_H-M 'Cmca'


loop_
_symmetry_equiv_pos_as_xyz
'x,y,z'
'x,-y,-z'
'-x+1/2,y,-z+1/2'
'-x+1/2,-y,z+1/2'
'-x,-y,-z'
'-x,y,z'
'x-1/2,-y,z-1/2'
'x-1/2,y,-z-1/2'
'x+1/2,y+1/2,z'
'x+1/2,-y+1/2,-z'
'-x+1,y+1/2,-z+1/2'
'-x+1,-y+1/2,z+1/2'
'-x+1/2,-y+1/2,-z'
'-x+1/2,y+1/2,z'
'x,-y+1/2,z-1/2'
'x,y+1/2,-z-1/2'


loop_
_atom_site_label
_atom_site_type_symbol
_atom_site_fract_x
_atom_site_fract_y
_atom_site_fract_z
_atom_site_occupancy
_atom_site_U_iso_or_equiv
Si1 Si 0.6180 0.4716 0.4246 1.0 0.0215
Si2 Si 0.6828 0.5650 0.3182 1.0 0.0215
Si3 Si 0.7896 0.6549 0.4144 1.0 0.0215
Si4 Si 0.6939 0.6486 0.5655 1.0 0.0215
Si5 Si 0.7148 0.7619 0.3319 1.0 0.0215
Si6 Si 0.5 0.7135 0.5365 1.0 0.0215
Si7 Si 0.5 0.7412 0.3736 1.0 0.0215
Si8 Si 0.5 0.6377 0.2844 1.0 0.0215
Si9 Si 0.0 0.6805 0.3713 1.0 0.0215
O1 O 0.6433 0.5 0.5 1.0 0.0215
O2 O 0.5 0.4590 0.4262 1.0 0.0215
O3 O 0.6423 0.5109 0.3568 1.0 0.0215
O4 O 0.6805 0.4145 0.4134 1.0 0.0215
O5 O 0.75 0.5495 0.25 1.0 0.0215
O6 O 0.7423 0.6056 0.3702 1.0 0.0215
O7 O 0.5919 0.5983 0.2863 1.0 0.0215
O8 O 0.7669 0.6526 0.4991 1.0 0.0215
O9 O 0.7460 0.7105 0.3832 1.0 0.0215
O10 O 0.9070 0.6497 0.4025 1.0 0.0215
O11 O 0.7371 0.6812 0.6358 1.0 0.0215
O12 O 0.5936 0.6760 0.5384 1.0 0.0215
O13 O 0.75 0.7581 0.25 1.0 0.0215
O14 O 0.5971 0.7675 0.3396 1.0 0.0215
O15 O 0.5 0.7494 0.4614 1.0 0.0215
O16 O 0.5 0.7560 0.6050 1.0 0.0215
O17 O 0.5 0.6762 0.3588 1.0 0.0215
O18 O 0.5 0.6797 0.2166 1.0 0.0215




