data_calcined_IM-5
_cell_length_a        14.2088
_cell_length_b        57.2368
_cell_length_c        19.9940
_cell_angle_alpha    90.0
_cell_angle_beta     90.
_cell_angle_gamma    90.


# setting 
# _symmetry_space_group_name_H-M 'Cmcm'


loop_
_symmetry_equiv_pos_as_xyz
'x,y,z'
'x,-y,-z'
'-x,y,-z+1/2'
'-x,-y,z+1/2'
'-x,-y,-z'
'-x,y,z'
'x,-y,z-1/2'
'x,y,-z-1/2'
'x+1/2,y+1/2,z'
'x+1/2,-y+1/2,-z'
'-x+1/2,y+1/2,-z+1/2'
'-x+1/2,-y+1/2,z+1/2'
'-x+1/2,-y+1/2,-z'
'-x+1/2,y+1/2,z'
'x+1/2,-y+1/2,z-1/2'
'x+1/2,y+1/2,-z-1/2'


loop_
_atom_site_label
_atom_site_type_sumbol
_atom_site_fract_x
_atom_site_fract_y
_atom_site_fract_z
_atom_site_occupancy
_atom_site_U_iso_or_equiv
Si1 Si 0.5000 0.4182 0.5574 1.0 0.0138
Si2 Si 0.5000 0.3847 0.6709 1.0 0.0138
Si3 Si 0.5000 0.2871 0.6732 1.0 0.0138
Si4 Si 0.5000 0.2530 0.9424 1.0 0.0138
Si5 Si 0.5000 0.0954 0.6269 1.0 0.0138
Si6 Si 0.5000 0.0411 0.6195 1.0 0.0138
Si7 Si 0.1991 0.0630 0.0315 1.0 0.0138
Si8 Si 0.1933 0.1372 0.1704 1.0 0.0138
Si9 Si 0.1859 0.1897 0.1244 1.0 0.0138
Si10 Si 0.2025 0.2647 0.0596 1.0 0.0138
Si11 Si 0.2035 0.3910 0.1735 1.0 0.0138
Si12 Si 0.1897 0.4812 0.1704 1.0 0.0138
Si13 Si 0.3137 0.0180 0.0613 1.0 0.0138
Si14 Si 0.2947 0.1082 0.0672 1.0 0.0138
Si15 Si 0.2920 0.2349 0.1709 1.0 0.0138
Si16 Si 0.3080 0.3114 0.0349 1.0 0.0138
Si17 Si 0.2971 0.3627 0.0555 1.0 0.0138
Si18 Si 0.3037 0.4364 0.1280 1.0 0.0138
Si19 Si 0.5000 0.0425 0.0397 1.0 0.0138
Si20 Si 0.5000 0.0963 0.0329 1.0 0.0138
Si21 Si 0.5000 0.2544 0.1753 1.0 0.0138
Si22 Si 0.5000 0.2912 0.4411 1.0 0.0138
Si23 Si 0.5000 0.3795 0.0571 1.0 0.0138
Si24 Si 0.5000 0.4175 0.1710 1.0 0.0138
O1 O 0.5907 0.4341 0.550 1.0 0.0160
O2 O 0.5000 0.3966 0.507 1.0 0.0160
O3 O 0.5000 0.4091 0.633 1.0 0.0160
O4 O 0.4100 0.3704 0.648 1.0 0.0160
O5 O 0.5000 0.3894 0.7500 1.0 0.0160
O6 O 0.5000 0.2799 0.7500 1.0 0.0160
O7 O 0.5891 0.3026 0.657 1.0 0.0160
O8 O 0.5000 0.2634 0.632 1.0 0.0160
O9 O 0.5000 0.2743 0.995 1.0 0.0160
O10 O 0.5908 0.2368 0.949 1.0 0.0160
O11 O 0.5000 0.0679 0.641 1.0 0.0160
O12 O 0.4078 0.1076 0.658 1.0 0.0160
O13 O 0.5000 0.0988 0.5472 1.0 0.0160
O14 O 0.5000 0.0384 0.5397 1.0 0.0160
O15 O 0.5891 0.0286 0.650 1.0 0.0160
O16 O 0.234 0.0373 0.049 1.0 0.0160
O17 O 0.208 0.0672 0.9520 1.0 0.0160
O18 O 0.262 0.0814 0.071 1.0 0.0160
O19 O 0.215 0.1640 0.150 1.0 0.0160
O20 O 0.268 0.1194 0.1381 1.0 0.0160
O21 O 0.199 0.1338 0.2500 1.0 0.0160
O22 O 0.262 0.2093 0.143 1.0 0.0160
O23 O 0.175 0.1889 0.0445 1.0 0.0160
O24 O 0.237 0.2913 0.057 1.0 0.0160
O25 O 0.2500 0.2500 0.0 1.0 0.0160
O26 O 0.232 0.2543 0.1312 1.0 0.0160
O27 O 0.221 0.3826 0.2500 1.0 0.0160
O28 O 0.259 0.3738 0.1240 1.0 0.0160
O29 O 0.243 0.4169 0.164 1.0 0.0160
O30 O 0.265 0.4616 0.150 1.0 0.0160
O31 O 0.211 0.5046 0.1294 1.0 0.0160
O32 O 0.192 0.4866 0.2500 1.0 0.0160
O33 O 0.4103 0.0312 0.073 1.0 0.0160
O34 O 0.323 0.0 0.0 1.0 0.0160
O35 O 0.4072 0.1087 0.061 1.0 0.0160
O36 O 0.245 0.1231 1.008 1.0 0.0160
O37 O 0.4050 0.2394 0.163 1.0 0.0160
O38 O 0.265 0.2365 0.2500 1.0 0.0160
O39 O 0.4094 0.3074 0.066 1.0 0.0160
O40 O 0.264 0.3360 0.056 1.0 0.0160
O41 O 0.4096 0.3632 0.055 1.0 0.0160
O42 O 0.4105 0.4327 0.151 1.0 0.0160
O43 O 0.5000 0.0697 0.056 1.0 0.0160
O44 O 0.5000 0.2645 0.2500 1.0 0.0160
O45 O 0.5000 0.2761 0.126 1.0 0.0160
O46 O 0.5000 0.3943 0.126 1.0 0.0160
O47 O 0.5000 0.4110 0.2500 1.0 0.0160




