data_ITQ-49  (calcined)
_cell_length_a        19.6002
_cell_length_b        18.3262
_cell_length_c        16.5329
_cell_angle_alpha    90.00
_cell_angle_beta     90.00
_cell_angle_gamma    90.00


# setting 
# _symmetry_space_group_name_H-M 'Immm'


loop_
_symmetry_equiv_pos_as_xyz
'x,y,z'
'x,-y,-z'
'-x,y,-z'
'-x,-y,z'
'-x,-y,-z'
'-x,y,z'
'x,-y,z'
'x,y,-z'
'x+1/2,y+1/2,z+1/2'
'x+1/2,-y+1/2,-z+1/2'
'-x+1/2,y+1/2,-z+1/2'
'-x+1/2,-y+1/2,z+1/2'
'-x+1/2,-y+1/2,-z+1/2'
'-x+1/2,y+1/2,z+1/2'
'x+1/2,-y+1/2,z+1/2'
'x+1/2,y+1/2,-z+1/2'


loop_
_atom_site_label
_atom_site_type_sumbol
_atom_site_fract_x
_atom_site_fract_y
_atom_site_fract_z
_atom_site_occupancy
_atom_site_U_iso_or_equiv
Si1 Si 0.23459 0.1205 0.1779 0.797 0.0811
Ge1 Ge 0.23459 0.1205 0.1779 0.203 0.0811
Si2 Si 0.16434 0.3800 0.1754 0.759 0.0811
Ge2 Ge 0.16434 0.3800 0.1754 0.241 0.0811
Si3 Si 0.00000 0.1411 0.0904 0.862 0.0811
Ge3 Ge 0.00000 0.1411 0.0904 0.138 0.0811
Si4 Si 0.1374 0.2322 0.0951 0.924 0.0811
Ge4 Ge 0.1374 0.2322 0.0951 0.076 0.0811
Si5 Si 0.0810 0.5000 0.2561 0.839 0.0811
Ge5 Ge 0.0810 0.5000 0.2561 0.161 0.0811
Si6 Si 0.2451 0.0000 0.4060 0.660 0.0811
Ge6 Ge 0.2451 0.0000 0.4060 0.340 0.0811
Si7 Si 0.1475 0.0000 0.2605 0.770 0.0811
Ge7 Ge 0.1475 0.0000 0.2605 0.230 0.0811
Si8 Si 0.1838 0.5000 0.4076 0.877 0.0811
Ge8 Ge 0.1838 0.5000 0.4076 0.123 0.0811
Si9 Si 0.0000 0.0000 0.2063 0.928 0.0811
Ge9 Ge 0.0000 0.0000 0.2063 0.072 0.0811
O1 O 0.2893 0.1450 0.2476 1.000 0.0747
O2 O 0.1712 0.0731 0.2131 1.000 0.0747
O3 O 0.2016 0.1940 0.1379 1.000 0.0747
O4 O 0.2683 0.0714 0.1063 1.000 0.0747
O5 O 0.0984 0.4288 0.2018 1.000 0.0747
O6 O 0.2111 0.4257 0.1115 1.000 0.0747
O7 O 0.1268 0.3141 0.1269 1.000 0.0747
O8 O 0.0000 0.1078 0.0000 1.000 0.0747
O9 O 0.0678 0.1881 0.1091 1.000 0.0747
O10 O 0.0000 0.0706 0.1493 1.000 0.0747
O11 O 0.1524 0.2347 0.0000 1.000 0.0747
O12 O 0.1212 0.5000 0.3425 1.000 0.0747
O13 O 0.0000 0.5000 0.2735 1.000 0.0747
O14 O 0.1741 0.0000 0.3536 1.000 0.0747
O15 O 0.2191 0.0000 0.5000 1.000 0.0747
O16 O 0.0651 0.0000 0.2647 1.000 0.0747
O17 O 0.1555 0.5000 0.5000 1.000 0.0747




