data_ITQ-44
_cell_length_a        19.5358
_cell_length_b        19.5358
_cell_length_c        14.4500
_cell_angle_alpha    90.00
_cell_angle_beta     90.00
_cell_angle_gamma    120.00


# setting 
# _symmetry_space_group_name_H-M 'P6/mmm'


loop_
_symmetry_equiv_pos_as_xyz
'x,y,z'
'x-y,x,z'
'y,-x+y,z'
'-y,x-y,z'
'-x+y,-x,z'
'x-y,-y,-z'
'-x,-x+y,-z'
'-x,-y,z'
'y,x,-z'
'-y,-x,-z'
'-x+y,y,-z'
'x,x-y,-z'
'-x,-y,-z'
'-x+y,-x,-z'
'-y,x-y,-z'
'y,-x+y,-z'
'x-y,x,-z'
'-x+y,y,z'
'x,x-y,z'
'x,y,-z'
'-y,-x,z'
'y,x,z'
'x-y,-y,z'
'-x,-x+y,z'


loop_
_atom_site_label
_atom_site_type_sumbol
_atom_site_fract_x
_atom_site_fract_y
_atom_site_fract_z
_atom_site_occupancy
_atom_site_U_iso_or_equiv
Si1 Si 0.4936 0.2468 0.3068 0.74 0.0329
Ge1 Ge 0.4936 0.2468 0.3068 0.26 0.0329
Si2 Si 0.5624 0.2812 0.1023 0.50 0.0329
Ge2 Ge 0.5624 0.2812 0.1023 0.50 0.0329
Si3 Si 0.6667 0.3333 0.3927 1.00 0.0329
Si4 Si 0.4662 0.0913 0.3902 0.63 0.0329
Ge4 Ge 0.4662 0.0913 0.3902 0.37 0.0329
O1 O 0.4426 0.2917 0.3316 1.00 0.1230
O2 O 0.4967 0.2483 0.1921 1.00 0.1230
O3 O 0.5730 0.2865 0.3738 1.00 0.1230
O4 O 0.6180 0.3820 0.1005 1.00 0.1230
O5 O 0.6667 0.3333 0.5000 1.00 0.1230
O6 O 0.3882 0.3882 0.3770 1.00 0.1230
O7 O 0.4756 0.3528 0.5000 1.00 0.1230
O8 O 0.5491 0.0980 0.3466 1.00 0.1230
O9 O 0.5116 0.2558 0.0000 1.00 0.1230




