data_ITQ-40_partially_calcined
_cell_length_a        16.469
_cell_length_b        16.469
_cell_length_c        32.192
_cell_angle_alpha    90.00
_cell_angle_beta     90.00
_cell_angle_gamma    120.00


# setting 
# _symmetry_space_group_name_H-M 'P63/mmc'


loop_
_symmetry_equiv_pos_as_xyz
'x,y,z'
'x-y,x,z+1/2'
'y,-x+y,z+1/2'
'-y,x-y,z'
'-x+y,-x,z'
'x-y,-y,-z'
'-x,-x+y,-z'
'-x,-y,z+1/2'
'y,x,-z'
'-y,-x,-z+1/2'
'-x+y,y,-z+1/2'
'x,x-y,-z+1/2'
'-x,-y,-z'
'-x+y,-x,-z-1/2'
'-y,x-y,-z-1/2'
'y,-x+y,-z'
'x-y,x,-z'
'-x+y,y,z'
'x,x-y,z'
'x,y,-z-1/2'
'-y,-x,z'
'y,x,z-1/2'
'x-y,-y,z-1/2'
'-x,-x+y,z-1/2'


loop_
_atom_site_label
_atom_site_type_sumbol
_atom_site_fract_x
_atom_site_fract_y
_atom_site_fract_z
_atom_site_occupancy
_atom_site_U_iso_or_equiv
Si1 Si 0.47160 0.33140 0.03350 0.574 0.0450
Ge1 Ge 0.47160 0.33140 0.03350 0.426 0.0450
Si2 Si 0.36600 0.43630 0.06280 0.574 0.0450
Ge2 Ge 0.36600 0.43630 0.06280 0.426 0.0450
Si3 Si 0.22660 0.45310 0.12080 0.574 0.0450
Ge3 Ge 0.22660 0.45310 0.12080 0.426 0.0450
Si4 Si 0.27280 0.54560 0.20450 0.574 0.0450
Ge4 Ge 0.27280 0.54560 0.20450 0.426 0.0450
Si5 Si 0.33333 0.66667 0.07880 0.574 0.0450
Ge5 Ge 0.33333 0.66667 0.07880 0.426 0.0450
O1 O 0.46600 0.23290 0.05140 1.000 0.1790
O2 O 0.58180 0.41820 0.04150 1.000 0.1790
O3 O 0.45000 0.32370 0.98230 1.000 0.1790
O4 O 0.40500 0.35940 0.06240 1.000 0.1790
O5 O 0.29070 0.40870 0.10220 1.000 0.1790
O6 O 0.46240 0.53760 0.07530 1.000 0.1790
O7 O 0.22700 0.45390 0.17240 1.000 0.1790
O8 O 0.28090 0.56180 0.10190 1.000 0.1790
O9 O 0.24490 0.48990 0.25000 1.000 0.1790
O10 O 0.22190 0.61100 0.20010 1.000 0.1790
O11 O 0.33333 0.66667 0.02860 1.000 0.1790




