data_ITQ-40_as-synthesized
_cell_length_a        16.4065
_cell_length_b        16.4065
_cell_length_c        32.2531
_cell_angle_alpha    90.00
_cell_angle_beta     90.00
_cell_angle_gamma    120.00


# setting 
_symmetry_space_group_name_H-M 'P63/mmc'


loop_
_symmetry_equiv_pos_as_xyz
'x,y,z'
'x-y,x,z+1/2'
'y,-x+y,z+1/2'
'-y,x-y,z'
'-x+y,-x,z'
'x-y,-y,-z'
'-x,-x+y,-z'
'-x,-y,z+1/2'
'y,x,-z'
'-y,-x,-z+1/2'
'-x+y,y,-z+1/2'
'x,x-y,-z+1/2'
'-x,-y,-z'
'-x+y,-x,-z-1/2'
'-y,x-y,-z-1/2'
'y,-x+y,-z'
'x-y,x,-z'
'-x+y,y,z'
'x,x-y,z'
'x,y,-z-1/2'
'-y,-x,z'
'y,x,z-1/2'
'x-y,-y,z-1/2'
'-x,-x+y,z-1/2'


loop_
_atom_site_label
_atom_site_type_symbol
_atom_site_fract_x
_atom_site_fract_y
_atom_site_fract_z
_atom_site_occupancy
_atom_site_U_iso_or_equiv
Si1 Si 0.47402 0.33304 0.031227 0.27 0.0124
Ge1 Ge 0.47402 0.33304 0.031227 0.73 0.0124
Si2 Si 0.36952 0.43704 0.062059 0.248 0.0133
Ge2 Ge 0.36952 0.43704 0.062059 0.752 0.0133
Si3 Si 0.22553 0.45106 0.11723 0.342 0.0122
Ge3 Ge 0.22553 0.45106 0.11723 0.658 0.0122
Si4 Si 0.27344 0.54689 0.20378 0.116 0.0175
Ge4 Ge 0.27344 0.54689 0.20378 0.884 0.0175
Si5 Si 0.3333 0.6667 0.08052 1 0.0151
O1 O 0.4368 0.3119 -0.0184 1 0.0561
O2 O 0.58981 0.41019 0.03782 1 0.0578
O3 O 0.4557 0.22785 0.05128 1 0.0242
O4 O 0.4043 0.3553 0.0622 1 0.0534
O5 O 0.45592 0.54408 0.07866 1 0.0546
O6 O 0.28376 0.39563 0.10014 1 0.0225
O7 O 0.22424 0.4485 0.16961 1 0.0277
O8 O 0.39362 0.60638 0.18904 1 0.0287
O9 O 0.24035 0.4807 0.25 1 0.0241
O10 O 0.27991 0.5598 0.09632 1 0.0323
O11 O 0.3333 0.6667 0.0312 1 0.0650
F1 F 0.5 0.5 0 1 0.0919
F2 F 0.3333 0.6667 0.25 1 0.0700




