data_ITQ-3_Calcined
_cell_length_a        20.622
_cell_length_b        9.7242
_cell_length_c        19.623
_cell_angle_alpha    90.0
_cell_angle_beta     90.0
_cell_angle_gamma    90.0


# setting 
# _symmetry_space_group_name_H-M 'Cmcm'


loop_
_symmetry_equiv_pos_as_xyz
'x,y,z'
'x,-y,-z'
'-x,y,-z+1/2'
'-x,-y,z+1/2'
'-x,-y,-z'
'-x,y,z'
'x,-y,z-1/2'
'x,y,-z-1/2'
'x+1/2,y+1/2,z'
'x+1/2,-y+1/2,-z'
'-x+1/2,y+1/2,-z+1/2'
'-x+1/2,-y+1/2,z+1/2'
'-x+1/2,-y+1/2,-z'
'-x+1/2,y+1/2,z'
'x+1/2,-y+1/2,z-1/2'
'x+1/2,y+1/2,-z-1/2'


loop_
_atom_site_label
_atom_site_type_sumbol
_atom_site_fract_x
_atom_site_fract_y
_atom_site_fract_z
_atom_site_occupancy
_atom_site_U_iso_or_equiv
Si1 Si 0.32018 -0.0430 0.1701 1.0 0.0139
Si2 Si 0.07561 0.4067 0.0561 1.0 0.0139
Si3 Si 0.2641 0.2255 0.1121 1.0 0.0139
Si4 Si 0.15302 0.1551 0.0036 1.0 0.0139
O1 O 0.3427 -0.0581 0.2500 1.0 0.0051
O2 O 0.2675 -0.1485 0.1491 1.0 0.0051
O3 O 0.0996 0.5000 0.0000 1.0 0.0051
O4 O 0.0978 0.2516 0.0287 1.0 0.0051
O5 O 0.0000 0.4105 0.0718 1.0 0.0051
O6 O 0.2148 0.1587 0.0569 1.0 0.0051
O7 O 0.3870 -0.0628 0.1288 1.0 0.0051
O8 O 0.2913 0.1093 0.1625 1.0 0.0051
O9 O 0.3275 0.2871 0.0695 1.0 0.0051
O10 O 0.1308 0.0000 0.0000 1.0 0.0051




