data_ITQ-38_calcined
_cell_length_a        12.896
_cell_length_b        12.777
_cell_length_c        21.195
_cell_angle_alpha    90.00
_cell_angle_beta     96.25 
_cell_angle_gamma    90.00


# setting 
# _symmetry_space_group_name_H-M 'P12/m1'


loop_
_symmetry_equiv_pos_as_xyz
'x,y,z'
'-x,y,-z'
'-x,-y,-z'
'x,-y,z'


loop_
_atom_site_label
_atom_site_type_sumbol
_atom_site_fract_x
_atom_site_fract_y
_atom_site_fract_z
_atom_site_occupancy
_atom_site_U_iso_or_equiv
T1a Si 0.62729 0.12554 0.22690 0.311 0.0127
T1b Ge 0.62729 0.12554 0.22690 0.689 0.0127
T2a Si 0.78024 0.12439 0.35939 0.594 0.0127
T2b Ge 0.78024 0.12439 0.35939 0.406 0.0127
T3a Si 0.97675 0.12857 0.28339 0.488 0.0127
T3b Ge 0.97675 0.12857 0.28339 0.512 0.0127
T4a Si 0.83193 0.12818 0.15553 0.509 0.0127
T4b Ge 0.83193 0.12818 0.15553 0.491 0.0127
T5a Si 0.11426 0.37309 0.07016 0.900 0.0127
T5b Ge 0.11426 0.37309 0.07016 0.100 0.0127
T6a Si 0.26349 0.37812 0.19295 0.954 0.0127
T6b Ge 0.26349 0.37812 0.19295 0.046 0.0127
T7a Si 0.13633 0.30456 0.29890 1 0.0127
T8a Si 0.27616 0.37603 0.42376 1 0.0127
T9a Si 0.49754 0.37522 0.37974 1 0.0127
T10a Si 0.72773 0.31452 0.43515 0.917 0.0127
T10b Ge 0.72773 0.31452 0.43515 0.082 0.0127
T11 Si 0.81129 0.5 0.36087 1 0.0127
T12 Si 0.98481 0.5 0.28218 1 0.0127
T13 Si 0.82852 0.5 0.15485 1 0.0127
T14 Si 0.65109 0.5 0.23170 1 0.0127
T15a Si 0.48994 0.31397 0.23705 0.830 0.0127
T15b Ge 0.48994 0.31397 0.23705 0.170 0.0127
T16a Si 0.88830 0.30780 0.07268 0.940 0.0127
T16b Ge 0.88830 0.30780 0.07268 0.060 0.0127
O1 O 0.01390 0.30918 0.08760 1 0.0253
O2 O 0.09643 0.5 0.06921 1 0.0253
O3 O 0.21171 0.34548 0.12235 1 0.0253
O4 O 0.24158 0.5 0.20442 1 0.0253
O5 O 0.38573 0.35493 0.19579 1 0.0253
O6 O 0.21472 0.30624 0.24503 1 0.0253
O7 O 0.08658 0.18911 0.30046 1 0.0253
O8 O 0.05091 0.39377 0.28337 1 0.0253
O9 O 0.20026 0.32012 0.36800 1 0.0253
O10 O 0.24168 0.33358 0.48977 1 0.0253
O11 O 0.25143 0.5 0.42138 1 0.0253
O12 O 0.39791 0.35507 0.41773 1 0.0253
O13 O 0.47787 0.31450 0.31224 1 0.0253
O14 O 0.50513 0.5 0.36707 1 0.0253
O15 O 0.60511 0.33424 0.41716 1 0.0253
O16 O 0.75860 0.19477 0.42083 1 0.0253
O17 O 0.79889 0.39254 0.39875 1 0.0253
O18 O 0.73361 0.5 0.29548 1 0.0253
O19 O 0.92936 0.5 0.34537 1 0.0253
O20 O 0.90673 0.5 0.21847 1 0.0253
O21 O 0.84074 0.39423 0.11579 1 0.0253
O22 O 0.70962 0.5 0.16880 1 0.0253
O23 O 0.58312 0.39447 0.22701 1 0.0127
O24 O 0.52207 0.19872 0.21312 1 0.0253
O25 O 0.58679 0 0.22621 1 0.0253
O26 O 0.70945 0.14157 0.17200 1 0.0253
O27 O 0.69269 0.15045 0.29823 1 0.0253
O28 O 0.76391 0 0.37961 1 0.0253
O29 O 0.89896 0.14626 0.34033 1 0.0253
O30 O 0.91531 0.17206 0.21485 1 0.0253
O31 O 0.85665 0 0.14433 1 0.0253
O32 O 0.84533 0.19339 0.09015 1 0.0253
O33 O 0.85615 0.33444 -0.00142 1 0.0253
O34 O 0.00000 0 0.27514 1 0.0253
C2 C 0.67612 -0.04524 0.68102 1.297 0.2533
C3 C 0.74274 0.04003 0.83654 1.511 0.2533
C4 C 0.08215 -0.09036 0.43185 1.635 0.2533
C5 C 0.40962 0.31950 0.96708 0.907 0.0735
C6 C 0.55798 0.50003 0.95261 0.190 0.1267
C7 C 0.38611 0.07868 0.01121 0.734 0.0830




