data_ITQ-34
_cell_length_a        11.5086
_cell_length_b        22.1730
_cell_length_c        25.2558
_cell_angle_alpha    90.00
_cell_angle_beta     90.00
_cell_angle_gamma    90.00


# setting 
_symmetry_space_group_name_H-M 'Cmcm'


loop_
_symmetry_equiv_pos_as_xyz
'x,y,z'
'x,-y,-z'
'-x,y,-z+1/2'
'-x,-y,z+1/2'
'-x,-y,-z'
'-x,y,z'
'x,-y,z-1/2'
'x,y,-z-1/2'
'x+1/2,y+1/2,z'
'x+1/2,-y+1/2,-z'
'-x+1/2,y+1/2,-z+1/2'
'-x+1/2,-y+1/2,z+1/2'
'-x+1/2,-y+1/2,-z'
'-x+1/2,y+1/2,z'
'x+1/2,-y+1/2,z-1/2'
'x+1/2,y+1/2,-z-1/2'


loop_
_atom_site_label
_atom_site_type_symbol
_atom_site_fract_x
_atom_site_fract_y
_atom_site_fract_z
_atom_site_occupancy
_atom_site_U_iso_or_equiv
Si1 Si 0.21633 0.11982 0.15385 1.00 0.0633
Si2 Si 0.24625 0.13282 0.65553 1.00 0.0633
Si3 Si 0.13351 0.24762 0.18893 1.00 0.0633
Si4 Si 0.1360 0.43127 0.56281 0.723 0.0633
Ge4 Ge 0.1360 0.43127 0.56281 0.277 0.0633
Si5 Si 0.1364 0.42914 0.06084 0.736 0.0633
Ge5 Ge 0.1364 0.42914 0.06084 0.264 0.0633
Si6 Si 0.13544 0.42120 0.75000 1.00 0.0633
Si7 Si 0.13557 0.43816 0.25000 0.908 0.0633
Ge7 Ge 0.13557 0.43816 0.25000 0.092 0.0633
Si8 Si 0.00000 0.04629 0.18852 0.903 0.0633
Ge8 Ge 0.00000 0.04629 0.18852 0.097 0.0633
Si9 Si 0.00000 0.09311 0.68856 0.928 0.0633
Ge9 Ge 0.00000 0.09311 0.68856 0.072 0.0633
O1 O 0.3147 0.1127 0.1986 1.00 0.0709
O2 O 0.1147 0.0703 0.1581 1.00 0.0709
O3 O 0.2712 0.1126 0.0956 1.00 0.0709
O4 O 0.1582 0.1855 0.1579 1.00 0.0709
O5 O 0.2782 0.1169 0.5950 1.00 0.0709
O6 O 0.3106 0.0874 0.6952 1.00 0.0709
O7 O 0.1073 0.1257 0.6590 1.00 0.0709
O8 O 0.2785 0.20226 0.6663 1.00 0.0709
O9 O 0.1680 0.2370 0.25000 1.00 0.0709
O10 O 0.00000 0.2676 0.1804 1.00 0.0709
O11 O 0.00000 0.4132 0.5767 1.00 0.0709
O12 O 0.1672 0.50145 0.5790 1.00 0.0709
O13 O 0.1774 0.4165 0.50110 1.00 0.0709
O14 O 0.00000 0.4094 0.0729 1.00 0.0709
O15 O 0.00000 0.4046 0.75000 1.00 0.0709
O16 O 0.1700 0.49131 0.75000 1.00 0.0709
O17 O 0.00000 0.4194 0.25000 1.00 0.0709
O18 O 0.00000 0.97663 0.1742 1.00 0.0709
O19 O 0.00000 0.0655 0.25000 1.00 0.0709
O20 O 0.00000 0.1107 0.75000 1.00 0.0709




