data_ITQ-33
_cell_length_a        19.3095
_cell_length_b        19.3095
_cell_length_c        11.5130
_cell_angle_alpha    90.00
_cell_angle_beta     90.00
_cell_angle_gamma    120.00


# setting 
_symmetry_space_group_name_H-M 'P6/mmm'


loop_
_symmetry_equiv_pos_as_xyz
'x,y,z'
'x-y,x,z'
'y,-x+y,z'
'-y,x-y,z'
'-x+y,-x,z'
'x-y,-y,-z'
'-x,-x+y,-z'
'-x,-y,z'
'y,x,-z'
'-y,-x,-z'
'-x+y,y,-z'
'x,x-y,-z'
'-x,-y,-z'
'-x+y,-x,-z'
'-y,x-y,-z'
'y,-x+y,-z'
'x-y,x,-z'
'-x+y,y,z'
'x,x-y,z'
'x,y,-z'
'-y,-x,z'
'y,x,z'
'x-y,-y,z'
'-x,-x+y,z'


loop_
_atom_site_label
_atom_site_type_symbol
_atom_site_fract_x
_atom_site_fract_y
_atom_site_fract_z
_atom_site_occupancy
_atom_site_U_iso_or_equiv
Ge1 Ge 0.3733 0.4652 0.3642 0.549 0.0597
Si1 Si 0.3733 0.4652 0.3642 0.315 0.0597
Ge2 Ge 0.3333 0.6667 0.3653 0.075 0.0363
Si2 Si 0.3333 0.6667 0.3653 0.789 0.0363
Ge3 Ge 0.2822 0.7178 0.0000 0.116 0.0779
Si3 Si 0.2822 0.7178 0.0000 0.748 0.0779
Ge4 Ge 0.2470 0.4939 0.2496 0.258 0.0410
Si4 Si 0.2470 0.4939 0.2496 0.606 0.0410
O1 O 0.2906 0.4418 0.2810 0.864 0.0771
O2 O 0.3397 0.4642 0.5000 0.864 0.1050
O3 O 0.3882 0.3882 0.3303 0.864 0.0960
O7 O 0.4445 0.5555 0.3110 0.864 0.0919
O8 O 0.2888 0.5775 0.3195 0.864 0.1009
O9 O 0.3333 0.6667 0.5000 0.864 0.1600
O10 O 0.3783 0.7565 0.0000 0.864 0.1140
O11 O 0.2542 0.7458 0.1082 0.864 0.1360
GeB1 Ge 0.3737 0.4657 0.1373 0.086 0.0621
SiB1 Si 0.3737 0.4657 0.1373 0.050 0.0621
GeB2 Ge 0.3333 0.6667 0.1359 0.012 0.0490
SiB2 Si 0.3333 0.6667 0.1359 0.124 0.0490
GeB3 Ge 0.2850 0.5700 0.5000 0.018 0.2600
SiB3 Si 0.2850 0.5700 0.5000 0.118 0.2600
GeB4 Ge 0.2470 0.4939 0.2496 0.041 0.0410
SiB4 Si 0.2470 0.4939 0.2496 0.095 0.0410
OB1 O 0.2940 0.4460 0.7840 0.136 0.0750
OB3 O 0.3940 0.3940 0.8010 0.136 0.0960
OB7 O 0.4428 0.5572 0.8040 0.136 0.0711
OB9 O 0.3333 0.6667 0.0000 0.136 0.1800
OB2 O 0.3340 0.4590 0.0000 0.136 0.1191
OB8 O 0.2870 0.5740 0.8250 0.136 0.0811
OB10 O 0.3785 0.7571 0.5000 0.136 0.2800
OB11 O 0.2490 0.4980 0.6070 0.136 0.1830




