data_ITQ-37
_cell_length_a        26.5126
_cell_length_b        26.5126
_cell_length_c        26.5126
_cell_angle_alpha    90.00
_cell_angle_beta     90.00
_cell_angle_gamma    90.00


# setting 
# _symmetry_space_group_name_H-M 'P4132'


loop_
_symmetry_equiv_pos_as_xyz
'x,y,z'
'x+1/4,-z+1/4,y+3/4'
'x+3/4,z+1/4,-y+1/4'
'z+3/4,y+1/4,-x+1/4'
'-z+1/4,y+3/4,x+1/4'
'-y+1/4,x+3/4,z+1/4'
'y+1/4,-x+1/4,z+3/4'
'z,x,y'
'y,z,x'
'-y+1/2,-z,x+1/2'
'z+1/2,-x+1/2,-y'
'-y,z+1/2,-x+1/2'
'-z+1/2,-x,y+1/2'
'-z,x+1/2,-y+1/2'
'y+1/2,-z+1/2,-x'
'x+1/2,-y+1/2,-z'
'-x,y+1/2,-z+1/2'
'-x+1/2,-y,z+1/2'
'y+3/4,x+1/4,-z+1/4'
'-y+3/4,-x+3/4,-z+3/4'
'z+1/4,-y+1/4,x+3/4'
'-z+3/4,-y+3/4,-x+3/4'
'-x+1/4,z+3/4,y+1/4'
'-x+3/4,-z+3/4,-y+3/4'


loop_
_atom_site_label
_atom_site_type_sumbol
_atom_site_fract_x
_atom_site_fract_y
_atom_site_fract_z
_atom_site_occupancy
_atom_site_U_iso_or_equiv
Si2 Ge 0.0467 0.1615 0.0481 0.3310 0.0135
Si2 Ge 0.0467 0.1615 0.0481 0.3310 0.0135
Si3 Ge 0.1651 0.1643 0.0473 0.3110 0.0135
Si3 Ge 0.1651 0.1643 0.0473 0.3110 0.0135
Si4 Ge 0.1663 0.1663 0.1663 0.2280 0.0135
Si4 Ge 0.1663 0.1663 0.1663 0.2280 0.0135
Si5 Ge 0.2380 0.2380 0.2380 0.1920 0.0135
Si5 Ge 0.2380 0.2380 0.2380 0.1920 0.0135
Si6 Ge 0.2480 0.2423 0.0076 0.2650 0.0135
Si6 Ge 0.2480 0.2423 0.0076 0.2650 0.0135
Si7 Ge 0.1992 0.3348 0.0614 0.2310 0.0135
Si7 Ge 0.1992 0.3348 0.0614 0.2310 0.0135
Si8 Ge 0.0785 0.3302 0.0655 0.2640 0.0135
Si8 Ge 0.0785 0.3302 0.0655 0.2640 0.0135
Si9 Ge 0.0789 0.4501 0.0705 0.4970 0.0135
Si9 Ge 0.0789 0.4501 0.0705 0.4970 0.0135
Si1 Si 0.0453 0.0453 0.0453 0.0210 0.0135
Si1 Si 0.0453 0.0453 0.0453 0.0210 0.0135
Si10 Si 0.2005 0.4519 0.0622 0.0320 0.0135
Si10 Si 0.2005 0.4519 0.0622 0.0320 0.0135
O1 O 0.0073 0.0073 0.0073 1.0000 0.0344
O2 O 0.0201 0.1053 0.0427 1.0000 0.0344
O3 O 0.0364 0.1833 0.1054 1.0000 0.0344
O4 O 0.1056 0.1665 0.0302 1.0000 0.0344
O5 O 0.0148 0.1979 0.0079 1.0000 0.0344
O6 O 0.1751 0.1808 0.1065 1.0000 0.0344
O7 O 0.2022 0.2022 0.2022 1.0000 0.0344
O8 O 0.1997 0.2025 0.0117 1.0000 0.0344
O9 O 0.2311 0.2999 0.0205 1.0000 0.0344
O10 O 0.2186 0.3220 0.1191 1.0000 0.0344
O11 O 0.2187 0.3915 0.0471 1.0000 0.0344
O12 O 0.1390 0.3248 0.0526 1.0000 0.0344
O13 O 0.0434 0.2949 0.0279 1.0000 0.0344
O14 O 0.0658 0.3157 0.1250 1.0000 0.0344
O15 O 0.0618 0.3903 0.0600 1.0000 0.0344
O16 O 0.0455 0.4898 0.0336 1.0000 0.0344
O17 O 0.1370 0.4594 0.0502 1.0000 0.0344
O18 O 0.2151 0.4651 0.1250 1.0000 0.0344
O19 O 0.2329 0.4952 0.0234 1.0000 0.0344
O31 O 0.4320 0.6760 0.0120 1.3000 0.0971
O32 O 0.8175 0.1919 0.6133 1.3000 0.0971
O33 O 0.3569 0.7811 0.3790 1.3000 0.0971
O34 O 0.6150 0.8537 0.4634 1.3000 0.0971
F1 F 0.1058 0.1058 0.1058 1.0000 0.0971
F2 F 0.1395 0.3895 0.1250 1.0000 0.0971
C1 C 0.6838 0.0575 0.1764 1.3000 0.0971
C2 C 0.6220 0.3984 0.1658 1.3000 0.0971
C3 C 0.5537 0.2994 0.3811 1.3000 0.0971
C4 C 0.0981 0.3486 0.3490 1.3000 0.0971
C5 C 0.6047 0.3281 0.2618 1.3000 0.0971
C6 C 0.0611 0.1820 0.9029 1.3000 0.0971
C7 C 0.8554 0.0950 0.4308 1.3000 0.0971
C8 C 0.8680 0.1983 0.5136 1.3000 0.0971
C9 C 0.0964 0.4892 0.4008 1.3000 0.0971
C10 C 0.5649 0.1381 0.3951 1.3000 0.0971
C11 C 0.8017 0.1099 0.2950 1.3000 0.0971
C12 C 0.0785 0.0509 0.9212 1.3000 0.0971




