data_ITQ-12_calcined
_cell_length_a        10.3359
_cell_length_b        15.0175
_cell_length_c        8.8638
_cell_angle_alpha    90.0
_cell_angle_beta     105.35
_cell_angle_gamma    90.0


# setting 
_symmetry_space_group_name_H-M 'C12/m1'


loop_
_symmetry_equiv_pos_as_xyz
'x,y,z'
'-x,y,-z'
'-x,-y,-z'
'x,-y,z'
'x+1/2,y+1/2,z'
'-x+1/2,y+1/2,-z'
'-x+1/2,-y+1/2,-z'
'x+1/2,-y+1/2,z'


loop_
_atom_site_label
_atom_site_type_symbol
_atom_site_fract_x
_atom_site_fract_y
_atom_site_fract_z
_atom_site_occupancy
_atom_site_U_iso_or_equiv
Si1 Si 0.6486 0.2442 0.1082 1.0 0.0092
Si2 Si 0.6957 0.3997 0.6684 1.0 0.0092
Si3 Si 0.6000 0.39893 0.3085 1.0 0.0092
O4 O 0.5 0.2210 0.0 1.0 0.0141
O5 O 0.8072 0.3381 0.7758 1.0 0.0141
O6 O 0.6205 0.5 0.2672 1.0 0.0141
O7 O 0.6569 0.3365 0.1964 1.0 0.0141
O8 O 0.4417 0.3801 0.2808 1.0 0.0141
O9 O 0.6797 0.3767 0.4863 1.0 0.0141
O10 O 0.75 0.25 0.0 1.0 0.0141
O11 O 0.7394 0.5 0.7134 1.0 0.0141




