data_ITQ-26
_cell_length_a        26.7769
_cell_length_b        26.7769
_cell_length_c        13.2505
_cell_angle_alpha    90.00
_cell_angle_beta     90.00
_cell_angle_gamma    90.00


# setting 
_symmetry_space_group_name_H-M 'I4/mmm'


loop_
_symmetry_equiv_pos_as_xyz
'x,y,z'
'-y,x,z'
'y,-x,z'
'x,-y,-z'
'-x,y,-z'
'-x,-y,z'
'y,x,-z'
'-y,-x,-z'
'-x,-y,-z'
'y,-x,-z'
'-y,x,-z'
'-x,y,z'
'x,-y,z'
'x,y,-z'
'-y,-x,z'
'y,x,z'
'x+1/2,y+1/2,z+1/2'
'-y+1/2,x+1/2,z+1/2'
'y+1/2,-x+1/2,z+1/2'
'x+1/2,-y+1/2,-z+1/2'
'-x+1/2,y+1/2,-z+1/2'
'-x+1/2,-y+1/2,z+1/2'
'y+1/2,x+1/2,-z+1/2'
'-y+1/2,-x+1/2,-z+1/2'
'-x+1/2,-y+1/2,-z+1/2'
'y+1/2,-x+1/2,-z+1/2'
'-y+1/2,x+1/2,-z+1/2'
'-x+1/2,y+1/2,z+1/2'
'x+1/2,-y+1/2,z+1/2'
'x+1/2,y+1/2,-z+1/2'
'-y+1/2,-x+1/2,z+1/2'
'y+1/2,x+1/2,z+1/2'


loop_
_atom_site_label
_atom_site_type_symbol
_atom_site_fract_x
_atom_site_fract_y
_atom_site_fract_z
_atom_site_occupancy
_atom_site_U_iso_or_equiv
Ge1 Ge 0.0586 0.3209 0.1176 0.32 0.0253
Si2 Si 0.0586 0.3209 0.1176 0.68 0.0253
Ge3 Ge 0.0584 0.2043 0.1179 0.32 0.0253
Si4 Si 0.0584 0.2043 0.1179 0.68 0.0253
Ge5 Ge 0.0582 0.0582 0.3825 0.32 0.0253
Si6 Si 0.0582 0.0582 0.3825 0.68 0.0253
Si7 Si 0.1050 0.1050 0.1891 1.00 0.0253
Si8 Si 0.0884 0.4116 0.25 1.00 0.0253
Si9 Si 0.0574 0.0574 0.0 1.00 0.0253
Si10 Si 0.0 0.4427 0.3837 1.00 0.0253
O11 O 0.0629 0.3410 0.0 1.00 0.0253
O12 O 0.0 0.3194 0.1550 1.00 0.0253
O13 O 0.0791 0.2625 0.1238 1.00 0.0253
O14 O 0.0876 0.3568 0.1983 1.00 0.0253
O15 O 0.0948 0.1645 0.1785 1.00 0.0253
O16 O 0.0571 0.1849 0.0 1.00 0.0253
O17 O 0.0 0.2020 0.1599 1.00 0.0253
O18 O 0.0726 0.0726 0.5 1.00 0.0253
O19 O 0.0 0.0718 0.3565 1.00 0.0253
O20 O 0.0924 0.0924 0.3049 1.00 0.0253
O21 O 0.0755 0.0755 0.1059 1.00 0.0253
O22 O 0.0845 0.4517 0.1624 1.00 0.0253
O23 O 0.0 0.0711 0.0 1.00 0.0253
O24 O 0.0 0.5 0.3529 1.00 0.0253
O25 O 0.0 0.4290 0.5 1.00 0.0253




