data_ITQ-22
_cell_length_a        42.1326
_cell_length_b        12.9885
_cell_length_c        12.6814
_cell_angle_alpha    90.0
_cell_angle_beta     90.0
_cell_angle_gamma    90.0


# setting 
# _symmetry_space_group_name_H-M 'Pbam'


loop_
_symmetry_equiv_pos_as_xyz
'x,y,z'
'x+1/2,-y+1/2,-z'
'-x+1/2,y+1/2,-z'
'-x,-y,z'
'-x,-y,-z'
'-x-1/2,y-1/2,z'
'x-1/2,-y-1/2,z'
'x,y,-z'


loop_
_atom_site_label
_atom_site_type_sumbol
_atom_site_fract_x
_atom_site_fract_y
_atom_site_fract_z
_atom_site_occupancy
_atom_site_U_iso_or_equiv
T1 Si 0.3850 0.9154 0.1275 1.0 0.0322
T2 Si 0.4226 0.6981 0.1277 1.0 0.0322
T3 Si 0.3564 0.5802 0.1250 1.0 0.0322
T4 Si 0.3189 0.7891 0.1225 1.0 0.0322
T5 Si 0.3839 0.8951 0.5000 1.0 0.0155
T6 Si 0.4198 0.6952 0.5000 1.0 0.0155
T7 Si 0.3571 0.5625 0.5000 1.0 0.0155
T8 Si 0.3190 0.7708 0.5000 1.0 0.0155
T9 Si 0.3506 0.4197 0.2980 1.0 0.0155
T10 Si 0.3788 0.0563 0.3157 1.0 0.0155
T11 Si 0.2796 0.8590 0.3139 1.0 0.0155
T12 Si 0.4631 0.6216 0.3125 1.0 0.0155
T13 Si 0.2892 0.3018 0.3767 1.0 0.0155
T14 Si 0.3074 0.0734 0.3764 1.0 0.0155
T15 Si 0.4044 0.2755 0.3769 1.0 0.0155
T16 Si 0.4667 0.3964 0.3765 1.0 0.0155
O1 O 0.4130 0.8239 0.1461 1.0 0.0404
O2 O 0.3835 0.9530 0.0000 1.0 0.0404
O3 O 0.3501 0.8612 0.1655 1.0 0.0404
O4 O 0.3903 0.0226 0.2014 1.0 0.0404
O5 O 0.4290 0.6754 0.0000 1.0 0.0404
O6 O 0.3898 0.6363 0.1718 1.0 0.0404
O7 O 0.4555 0.6668 0.1978 1.0 0.0404
O8 O 0.3626 0.5441 0.0000 1.0 0.0404
O9 O 0.3256 0.6622 0.1451 1.0 0.0404
O10 O 0.3448 0.4721 0.1860 1.0 0.0404
O11 O 0.3073 0.8194 0.0000 1.0 0.0404
O12 O 0.2871 0.8218 0.1966 1.0 0.0404
O13 O 0.4133 0.8167 0.5000 1.0 0.0404
O14 O 0.3496 0.8419 0.5000 1.0 0.0404
O15 O 0.3880 0.9651 0.3968 1.0 0.0404
O16 O 0.3922 0.6110 0.5000 1.0 0.0404
O17 O 0.4442 0.6762 0.4054 1.0 0.0404
O18 O 0.3318 0.6549 0.5000 1.0 0.0404
O19 O 0.3511 0.4968 0.3953 1.0 0.0404
O20 O 0.2987 0.7909 0.3964 1.0 0.0404
O21 O 0.3194 0.3504 0.3173 1.0 0.0404
O22 O 0.3818 0.3487 0.3080 1.0 0.0404
O23 O 0.3413 0.0815 0.3182 1.0 0.0404
O24 O 0.3996 0.1552 0.3486 1.0 0.0404
O25 O 0.2416 0.8491 0.3207 1.0 0.0404
O26 O 0.2894 0.9788 0.3214 1.0 0.0404
O27 O 0.4570 0.4985 0.3122 1.0 0.0404
O28 O 0.4993 0.6497 0.3419 1.0 0.0404
O29 O 0.2912 0.3267 0.5000 1.0 0.0404
O30 O 0.2897 0.1810 0.3462 1.0 0.0404
O31 O 0.3131 0.0524 0.5000 1.0 0.0404
O32 O 0.3962 0.2837 0.5000 1.0 0.0404
O33 O 0.4411 0.3061 0.3628 1.0 0.0404
O34 O 0.4704 0.4195 0.5000 1.0 0.0404




