data_Nepheline_Hydrate
_cell_length_a         7.503
_cell_length_b         8.233
_cell_length_c         5.230
_cell_angle_alpha     90
_cell_angle_beta      90
_cell_angle_gamma     90


# setting 
# _symmetry_space_group_name_H-M 'Pmc21'


loop_
_symmetry_equiv_pos_as_xyz
'x,y,z'
'-x,-y,z+1/2'
'-x,y,z'
'x,-y,z+1/2'


loop_
_atom_site_label
_atom_site_type_sumbol
_atom_site_fract_x
_atom_site_fract_y
_atom_site_fract_z
_atom_site_occupancy
_atom_site_U_iso_or_equiv
NA1 Na 0.5000 0.1774 0.466 1.0 0.0241
NA2 Na 0.0000 0.419 0.106 0.5 0.0621
SI Si 0.2173 0.1060 0.000 0.5 0.0114
SI Si 0.2173 0.1060 0.000 0.5 0.0114
AL Al 0.2173 0.1060 0.000 0.5 0.0114
AL Al 0.2173 0.1060 0.000 0.5 0.0114
O1 O 0.0000 0.1420 0.014 1.0 0.0228
O2 O 0.5000 0.5628 0.170 1.0 0.0228
O3 O 0.2849 0.0326 0.718 1.0 0.0253
O4 O 0.3204 0.1833 0.061 1.0 0.0228
H2O1 O2-(H2O) 0.0000 0.330 0.514 0.25 0.0367
H2O2 O2-(H2O) 0.0000 0.470 0.538 0.25 0.0494




