data_JU92-300
_cell_length_a        8.4084
_cell_length_b        14.4558
_cell_length_c        16.3592
_cell_angle_alpha    90.00
_cell_angle_beta     120.037
_cell_angle_gamma    90.00


# setting 
# _symmetry_space_group_name_H-M 'P21/c'


loop_
_symmetry_equiv_pos_as_xyz
'x,y,z'
'-x,y+1/2,-z+1/2'
'-x,-y,-z'
'x,-y-1/2,z-1/2'


loop_
_atom_site_label
_atom_site_type_sumbol
_atom_site_fract_x
_atom_site_fract_y
_atom_site_fract_z
_atom_site_occupancy
_atom_site_U_iso_or_equiv
P1 P 0.8531 0.66451 0.24313 1 0.0151
P2 P 1.21497 0.71085 0.60391 1 0.0142
P3 P 0.70107 0.94568 0.2947 1 0.0167
P4 P 0.59773 0.64195 0.43013 1 0.0160
Al1 Al 0.86474 0.77199 0.41543 1 0.0144
Al2 Al 0.59388 0.82161 0.11784 1 0.0158
Al3 Al 1.22885 0.64492 0.24416 1 0.0137
Mg1 Mg 0.7283 0.49272 0.32343 1 0.0180
O1 O 1.1483 0.62153 0.6217 1 0.0289
O2 O 1.3627 0.69446 0.5771 1 0.0275
O3 O 1.0599 0.76657 0.52366 1 0.0267
O4 O 0.39 0.64354 0.36261 1 0.0263
O5 O 1.2977 0.77336 0.69143 1 0.0237
O6 O 0.6938 0.71327 0.15887 1 0.0267
O7 O 0.8024 0.56502 0.24614 1 0.0289
O8 O 0.8264 0.88856 0.38356 1 0.0222
O9 O 0.6892 0.56402 0.4099 1 0.0299
O10 O 0.6287 0.63689 0.52985 1 0.0274
O11 O 0.6734 0.73527 0.4195 1 0.0301
O12 O 0.696 0.89933 0.21001 1 0.0296
O13 O 1.0167 0.672 0.2287 1 0.0318
O14 O 0.798 1.03875 0.31025 1 0.0315
O15 O 0.5132 0.9562 0.2816 1 0.0324
O16 O 0.8995 0.7137 0.33416 1 0.0339
N1 N 0.4114 0.9871 0.4416 0.5 0.0519
N2 N 0.235 0.9438 0.4055 0.5 0.0756
C1 C 0.4303 1.0688 0.5166 1 0.0490
C2 C 0.2548 1.0137 0.4775 0.5 0.0529
C3 C 0.385 0.8845 0.4409 0.5 0.0699
C4 C 0.235 0.9438 0.4055 0.5 0.0756




