data_LSJ-10
_cell_length_a        12.7069
_cell_length_b        13.2309
_cell_length_c        13.9362
_cell_angle_alpha    90.00
_cell_angle_beta     90.00
_cell_angle_gamma    90.00


# setting 
_symmetry_space_group_name_H-M 'Pnma'


loop_
_symmetry_equiv_pos_as_xyz
'x,y,z'
'x+1/2,-y+1/2,-z+1/2'
'-x,y+1/2,-z'
'-x+1/2,-y,z+1/2'
'-x,-y,-z'
'-x-1/2,y-1/2,z-1/2'
'x,-y-1/2,z'
'x-1/2,y,-z-1/2'


loop_
_atom_site_label
_atom_site_type_symbol
_atom_site_fract_x
_atom_site_fract_y
_atom_site_fract_z
_atom_site_occupancy
_atom_site_U_iso_or_equiv
O1 O 0.71190 0.0931 0.49820 1.00000 0.0200
O2 O 0.51650 0.1006 0.42990 1.00000 0.0230
O3 O 0.55030 0.0851 0.62060 1.00000 0.0360
O4 O 0.59500 0.2500 0.53090 1.00000 0.0590
O5 O 0.84780 0.0398 0.86830 1.00000 0.0250
O6 O 0.51710 0.0476 0.24960 1.00000 0.0270
O7 O 1.01920 0.1263 0.41500 1.00000 0.0250
O8 O 0.83660 0.0517 0.34910 1.00000 0.0210
O9 O 0.58190 0.2500 0.94990 1.00000 0.0200
O10 O 0.80350 -0.0865 0.48850 1.00000 0.0250
O11 O 0.50740 0.0738 0.90020 1.00000 0.0250
Si1 Si 0.59370 0.1296 0.51960 1.00000 0.0247
Si2 Si 0.96290 0.0350 0.35470 1.00000 0.0265
Si3 Si 0.57800 0.1325 0.98290 1.00000 0.0271
Si4 Si 0.46640 -0.0022 0.64180 1.00000 0.0290
Be5 Be 0.75090 0.0055 0.42660 1.00000 0.0000
H2O2 O2-(H2O) 0.75600 0.2000 0.72400 0.25000 0.0500
H2O3 O2-(H2O) 0.41000 0.2500 0.34300 0.46000 0.0500
K1 K 0.55080 0.2500 0.75060 0.91000 0.0890
K2 K 0.76180 -0.0053 0.67440 1.00000 0.1269
K3 K 0.33790 0.2500 0.56010 1.00000 0.1849
N N 0.75800 0.2020 0.27000 0.42000 0.0500
C1 C 0.81000 0.2500 0.34600 0.15000 0.0500
C2 C 0.83800 0.2500 0.21900 0.41000 0.0500
C3 C 0.66000 0.2500 0.26300 0.36000 0.0500
C4 C 0.83600 0.2050 0.08400 0.33000 0.0500
C5 C 0.83820 0.2500 0.46410 1.00000 0.0500
C6 C 0.55140 0.2500 0.25840 1.00000 0.0500




