data_CoAPO-CJ40
_cell_length_a        8.2319
_cell_length_b        9.165
_cell_length_c        17.580
_cell_angle_alpha    90.00
_cell_angle_beta     90.00
_cell_angle_gamma    90.00


# setting 
_symmetry_space_group_name_H-M 'P21212'


loop_
_symmetry_equiv_pos_as_xyz
'x,y,z'
'x+1/2,-y+1/2,-z'
'-x+1/2,y+1/2,-z'
'-x,-y,z'


loop_
_atom_site_label
_atom_site_type_symbol
_atom_site_fract_x
_atom_site_fract_y
_atom_site_fract_z
_atom_site_occupancy
_atom_site_U_iso_or_equiv
Co1 Co 0.6387 -0.8688 0.0661 1.00 0.0370
Al1 Al 0.6387 -0.8688 0.0661 1.00 0.0370
Al2 Al 0.0603 -0.0878 0.0316 1.00 0.0231
Al3 Al 0.9426 -0.0853 0.333 1.00 0.0110
P1 P 0.6335 -0.1311 0.4288 1.00 0.0270
P2 P 0.4293 -0.0905 -0.0268 1.00 0.0260
P3 P 0.9359 -0.9154 0.1727 1.00 0.0239
O1 O 0.5357 -0.0331 0.036 1.00 0.0490
O2 O 0.4857 -0.242 -0.0495 1.00 0.0529
O3 O 0.2554 -0.0979 0.0011 1.00 0.0480
O4 O 0.0486 -0.9877 0.1146 1.00 0.0380
O5 O 0.9925 -0.7587 0.1826 1.00 0.0580
O6 O 0.7616 -0.9211 0.1459 1.00 0.0500
O7 O 0.9519 -0.9892 0.2483 1.00 0.0500
O8 O 0.0662 -0.0051 0.4024 1.00 0.0450
O9 O 0.7348 -0.087 0.3598 1.00 0.0360
O10 O 0.5555 -0.9943 0.4614 1.00 0.0490
O11 O 0.7385 -0.205 0.4888 1.00 0.0380
O12 O 0.5018 -0.2332 0.4001 1.00 0.0529
N1 N 0.506 0.507 0.253 1.00 0.2100
C1 C 0.531 0.738 0.201 1.00 0.1291
C2 C 0.635 0.604 0.220 1.00 0.0780
C3 C 0.64 0.413 0.2783 1.00 0.0740
C4 C 0.545 0.278 0.302 1.00 0.1500




