data_CoAPO-CJ69
_cell_length_a        8.9024
_cell_length_b        14.2796
_cell_length_c        15.0637
_cell_angle_alpha    90.0
_cell_angle_beta     95.068
_cell_angle_gamma    90.00


# setting 
# _symmetry_space_group_name_H-M 'P121/c1'


loop_
_symmetry_equiv_pos_as_xyz
'x,y,z'
'-x,y+1/2,-z+1/2'
'-x,-y,-z'
'x,-y-1/2,z-1/2'


loop_
_atom_site_label
_atom_site_type_sumbol
_atom_site_fract_x
_atom_site_fract_y
_atom_site_fract_z
_atom_site_occupancy
_atom_site_U_iso_or_equiv
Co1 Co 0.82257 0.05886 0.24323 0.494 0.0217
Al1 Al 0.82257 0.05886 0.24323 0.506 0.0217
Co2 Co 0.61917 -0.06020 -0.09068 0.211 0.0204
Al2 Al 0.61917 -0.06020 -0.09068 0.789 0.0204
Co3 Co 0.63958 0.07044 -0.38532 0.151 0.0214
Al3 Al 0.63958 0.07044 -0.38532 0.849 0.0214
Co4 Co 0.42598 0.21385 -0.66416 0.142 0.0238
Al4 Al 0.42598 0.21385 -0.66416 0.858 0.0238
P4 P 0.60091 0.28166 -0.33783 1.000 0.0195
P3 P 0.64094 0.05539 -0.58707 1.000 0.0213
P2 P 0.64951 -0.08051 0.11125 1.000 0.0213
P1 P 0.81206 -0.06628 -0.25415 1.000 0.0205
O16 O 0.70060 -0.05470 0.02001 1.000 0.0367
O15 O 0.69970 0.03870 -0.49041 1.000 0.0334
O14 O 0.50310 0.03720 -0.12160 1.000 0.0401
O13 O 0.76940 -0.06380 -0.15948 1.000 0.0418
O12 O 0.76570 -0.04770 0.18360 1.000 0.0439
O11 O 0.76480 0.02460 -0.30116 1.000 0.0396
O10 O 0.77530 0.06480 0.35930 1.000 0.0400
O9 O 0.54640 0.14490 -0.59120 1.000 0.0407
O8 O 0.63580 -0.18648 0.11490 1.000 0.0456
O7 O 0.54490 -0.02650 -0.62270 1.000 0.0405
O6 O 0.64510 0.19226 -0.38250 1.000 0.0409
O5 O 0.53040 0.25570 -0.25340 1.000 0.0462
O4 O 0.74200 0.16170 0.18220 1.000 0.0464
O3 O 0.51070 -0.16520 -0.10040 1.000 0.0417
O2 O 1.02160 0.07980 0.25200 1.000 0.0589
O1 O 0.26640 0.14770 -0.69710 1.000 0.0439
N1 N 0.98900 0.19200 0.04760 0.500 0.1440
N1' N 1.01300 0.30260 -0.04880 0.500 0.1500
C1 C 0.87320 0.17770 -0.11260 1.000 0.1861
C2 C 0.91400 0.14230 -0.03340 0.500 0.1340
C2' C 0.94300 0.21590 -0.04470 0.500 0.1080
C3 C 1.04600 0.28000 0.03610 0.500 0.1940
C3' C 1.08700 0.34420 0.03760 0.500 0.2200
C4 C 1.10540 0.32000 0.11860 1.000 0.1679




