data_JU-64
_cell_length_a        30.0117
_cell_length_b        30.0117
_cell_length_c        37.301
_cell_angle_alpha    90.00
_cell_angle_beta     90.00
_cell_angle_gamma    120.00


# setting 
# _symmetry_space_group_name_H-M 'R-3'


loop_
_symmetry_equiv_pos_as_xyz
'x,y,z'
'-y,x-y,z'
'-x+y,-x,z'
'-x,-y,-z'
'y,-x+y,-z'
'x-y,x,-z'
'x+1/3,y+2/3,z+2/3'
'-y+1/3,x-y+2/3,z+2/3'
'-x+y+1/3,-x+2/3,z+2/3'
'-x+1/3,-y+2/3,-z+2/3'
'y+1/3,-x+y+2/3,-z+2/3'
'x-y+1/3,x+2/3,-z+2/3'
'x+2/3,y+1/3,z+1/3'
'-y+2/3,x-y+1/3,z+1/3'
'-x+y+2/3,-x+1/3,z+1/3'
'-x+2/3,-y+1/3,-z+1/3'
'y+2/3,-x+y+1/3,-z+1/3'
'x-y+2/3,x+1/3,-z+1/3'


loop_
_atom_site_label
_atom_site_type_sumbol
_atom_site_fract_x
_atom_site_fract_y
_atom_site_fract_z
_atom_site_occupancy
_atom_site_U_iso_or_equiv
Ge1 Ge 0.2170 0.0808 0.2107 0.78 0.0217
Ge2 Ge 0.2756 0.1911 0.2392 0.71 0.0220
Ge3 Ge 0.2677 0.2351 0.1651 0.69 0.0223
Ge4 Ge 0.0879 0.1171 0.4586 0.70 0.0214
Ge5 Ge 0.1170 0.0277 0.4590 0.67 0.0217
Ge6 Ge 0.2092 0.1248 0.1338 0.69 0.0225
Ge7 Ge 0.2368 0.2712 0.2354 0.64 0.0229
Ge8 Ge 0.0516 0.1789 0.4090 0.75 0.0229
Ge9 Ge 0.1357 0.2649 0.2643 0.69 0.0236
Ge10 Ge 0.3717 0.1768 0.2579 0.85 0.0229
Ge11 Ge 0.3537 0.2658 0.1047 0.77 0.0225
Ge12 Ge 0.4889 0.2392 0.2809 0.86 0.0263
Ge13 Ge 0.0631 0.2235 0.3307 0.68 0.0228
Ge14 Ge 0.0159 0.2178 0.2545 0.49 0.0228
Ge15 Ge 0.5624 0.3330 0.3306 0.74 0.0243
Ge16 Ge 0.2404 0.3691 0.2698 0.74 0.0232
Ga1 Ga 0.2170 0.0808 0.2107 0.22 0.0217
Ga2 Ga 0.2756 0.1911 0.2392 0.29 0.0220
Ga3 Ga 0.2677 0.2351 0.1651 0.31 0.0223
Ga4 Ga 0.0879 0.1171 0.4586 0.30 0.0214
Ga5 Ga 0.1170 0.0277 0.4590 0.33 0.0217
Ga6 Ga 0.2092 0.1248 0.1338 0.31 0.0225
Ga7 Ga 0.2368 0.2712 0.2354 0.36 0.0229
Ga8 Ga 0.0516 0.1789 0.4090 0.25 0.0229
Ga9 Ga 0.1357 0.2649 0.2643 0.31 0.0236
Ga10 Ga 0.3717 0.1768 0.2579 0.15 0.0229
Ga11 Ga 0.3537 0.2658 0.1047 0.23 0.0225
Ga12 Ga 0.4889 0.2392 0.2809 0.14 0.0263
Ga13 Ga 0.0631 0.2235 0.3307 0.32 0.0228
Ga14 Ga 0.0159 0.2178 0.2545 0.50 0.0228
Ga15 Ga 0.5624 0.3330 0.3306 0.26 0.0243
Ga16 Ga 0.2404 0.3691 0.2698 0.26 0.0232
O1 O 0.1690 0.2392 0.2418 1.00 0.0410
O2 O 0.0803 0.2494 0.2392 1.00 0.0410
O3 O 0.1190 0.2356 0.3067 1.00 0.0410
O4 O 0.0719 0.2793 0.3529 1.00 0.0439
O5 O 0.1737 0.3323 0.2657 1.00 0.0410
O6 O 0.1202 0.0855 0.4434 1.00 0.0299
O7 O 0.1128 0.1493 0.5001 1.00 0.0320
O8 O 0.0211 0.0734 0.4657 1.00 0.0261
O9 O 0.0963 0.1611 0.4243 1.00 0.0339
O10 O 0.0715 0.2420 0.4232 1.00 0.0380
O11 O -0.0104 0.1362 0.4255 1.00 0.0339
O12 O 0.2674 0.3331 0.2529 1.00 0.0390
O13 O 0.2496 0.2733 0.1889 1.00 0.0380
O14 O 0.2595 0.2343 0.2577 1.00 0.0320
O15 O 0.3234 0.1919 0.2670 1.00 0.0350
O16 O 0.0496 0.1741 0.3619 1.00 0.0390
O17 O 0.3128 0.2752 0.1334 1.00 0.0320
O18 O 0.2121 0.1839 0.1458 1.00 0.0339
O19 O 0.2725 0.1397 0.1198 1.00 0.0274
O20 O 0.1898 0.0798 0.1687 1.00 0.0290
O21 O 0.1660 0.0969 0.0985 1.00 0.0380
O22 O 0.4218 0.2110 0.2882 1.00 0.0320
O23 O 0.5200 0.3041 0.2947 1.00 0.0390
O24 O 0.5709 0.2864 0.3542 1.00 0.0460
O25 O 0.5119 0.2052 0.3060 1.00 0.0400
O26 O 0.3473 0.1107 0.2639 1.00 0.0320
O27 O 0.2817 0.0958 0.2042 1.00 0.0234
O28 O 0.3984 0.3248 0.0874 1.00 0.0339
O29 O 0.1800 0.0190 0.2291 1.00 0.0339
O30 O 0.2202 0.1290 0.2398 1.00 0.0320
O31 O 0.2960 0.2083 0.1941 1.00 0.0261
O32 O 0.0111 0.2016 0.3007 1.00 0.0339
Ni1 Ni 0.0816 0.2037 0.1219 1.00 0.0621
Ni2 Ni 0.2802 0.4650 0.0142 1.00 0.0496
Ni3 Ni 0.8333 0.6667 0.1667 0.40 0.0361
Ni4 Ni 0.3333 0.6667 0.1667 0.34 0.0210
N1 N 0.1340 0.1963 0.0871 1.00 0.0931
N2 N 0.1422 0.2814 0.1278 1.00 0.0931
N3 N 0.0268 0.2180 0.1480 1.00 0.0931
N4 N 0.0531 0.2221 0.0751 1.00 0.0931
N5 N 0.0317 0.1230 0.1149 1.00 0.0931
N6 N 0.1030 0.1822 0.1707 1.00 0.0931
N7 N 0.2431 0.4364 0.0645 1.00 0.0931
N8 N 0.2036 0.4300 -0.0006 1.00 0.0931
N9 N 0.3531 0.4881 0.0381 1.00 0.0931
N10 N 0.2837 0.3973 0.0002 1.00 0.0931
N11 N 0.3158 0.5050 -0.0342 1.00 0.0931
N12 N 0.2848 0.5367 0.0261 1.00 0.0931
C1 C 0.1820 0.2475 0.0849 1.00 0.1350
C2 C 0.1899 0.2857 0.1121 1.00 0.1350
C3 C 0.2305 0.3374 0.1022 1.00 0.1589
C4 C -.0004 0.2259 0.1198 1.00 0.1350
C5 C 0.0246 0.2485 0.0868 1.00 0.1350
C6 C -0.0007 0.2549 0.0596 1.00 0.1589
C7 C 0.0349 0.0963 0.1478 1.00 0.1350
C8 C 0.0798 0.1251 0.1707 1.00 0.1350
C9 C 0.0738 0.1007 0.2056 1.00 0.1589
C10 C 0.1871 0.4011 0.0577 1.00 0.1350
C11 C 0.1673 0.4111 0.0247 1.00 0.1350
C12 C 0.1146 0.3712 0.0171 1.00 0.1589
C13 C 0.3685 0.4494 0.0282 1.00 0.1350
C14 C 0.3246 0.3974 0.0249 1.00 0.1350
C15 C 0.3401 0.3598 0.0158 1.00 0.1589
C16 C 0.3391 0.5614 -0.0272 1.00 0.1350
C17 C 0.3018 0.5690 -0.0007 1.00 0.1350
C18 C 0.2612 0.5667 -0.0299 1.00 0.1589




