data_GaGeO-CJ63
_cell_length_a        16.5716
_cell_length_b        16.5716
_cell_length_c        16.5716
_cell_angle_alpha    90.00
_cell_angle_beta     90.00
_cell_angle_gamma    90.00


# setting 
_symmetry_space_group_name_H-M 'Pa-3'


loop_
_symmetry_equiv_pos_as_xyz
'x,y,z'
'z,x,y'
'y,z,x'
'-y+1/2,-z,x+1/2'
'z+1/2,-x+1/2,-y'
'-y,z+1/2,-x+1/2'
'-z+1/2,-x,y+1/2'
'-z,x+1/2,-y+1/2'
'y+1/2,-z+1/2,-x'
'x+1/2,-y+1/2,-z'
'-x,y+1/2,-z+1/2'
'-x+1/2,-y,z+1/2'
'-x,-y,-z'
'-z,-x,-y'
'-y,-z,-x'
'y-1/2,z,-x-1/2'
'-z-1/2,x-1/2,y'
'y,-z-1/2,x-1/2'
'z-1/2,x,-y-1/2'
'z,-x-1/2,y-1/2'
'-y-1/2,z-1/2,x'
'-x-1/2,y-1/2,z'
'x,-y-1/2,z-1/2'
'x-1/2,y,-z-1/2'


loop_
_atom_site_label
_atom_site_type_symbol
_atom_site_fract_x
_atom_site_fract_y
_atom_site_fract_z
_atom_site_occupancy
_atom_site_U_iso_or_equiv
Ga1 Ga 0.84078 0.06714 0.07681 0.33 0.0180
Ge1 Ge 0.84078 0.06714 0.07681 0.67 0.0180
Ga2 Ga 0.86187 0.25744 0.08795 0.33 0.0170
Ge2 Ge 0.86187 0.25744 0.08795 0.67 0.0170
O1 O 0.92760 0.28820 0.16710 1.00 0.0305
O2 O 0.81740 0.16420 0.11600 1.00 0.0300
O3 O 0.92180 0.02570 0.13280 1.00 0.0290
O4 O 0.75580 0.00300 0.08420 1.00 0.0334
Ni1 Ni 0.83408 0.83408 0.83408 1.00 0.0228
C1 C 0.68260 0.92170 0.83260 1.00 0.1180
H1A H 0.67200 0.93400 0.77640 1.00 0.1410
H1B H 0.63200 0.92820 0.86130 1.00 0.1410
C2 C 0.86070 0.73400 0.97860 1.00 0.0670
H2C H 0.91830 0.72540 0.98510 1.00 0.0800
H2D H 0.83500 0.72160 0.02970 1.00 0.0800
N1 N 0.70410 0.83940 0.83710 1.00 0.0590
H1C H 0.68310 0.81200 0.79520 1.00 0.0709
H1D H 0.68540 0.81750 0.88320 1.00 0.0709
N2 N 0.84660 0.81810 0.95930 1.00 0.0329
H2A H 0.88820 0.84810 0.97730 1.00 0.0390
H2B H 0.80150 0.83510 0.98440 1.00 0.0390




