data_Cobalt_Gallophosphate
_cell_length_a         15.058
_cell_length_b         13.197
_cell_length_c         15.273
_cell_angle_alpha     90
_cell_angle_beta      112.20
_cell_angle_gamma     90


# setting 
_symmetry_space_group_name_H-M 'C12/c1'


loop_
_symmetry_equiv_pos_as_xyz
'x,y,z'
'-x,y,-z+1/2'
'-x,-y,-z'
'x,-y,z-1/2'
'x+1/2,y+1/2,z'
'-x+1/2,y+1/2,-z+1/2'
'-x+1/2,-y+1/2,-z'
'x+1/2,-y+1/2,z-1/2'


loop_
_atom_site_label
_atom_site_type_symbol
_atom_site_fract_x
_atom_site_fract_y
_atom_site_fract_z
_atom_site_occupancy
_atom_site_U_iso_or_equiv
GA1 Ga 0.56738 0.10568 0.65382 0.6667 0.0262
CO1 Co 0.56738 0.10568 0.65382 0.3333 0.0262
GA2 Ga 0.73158 -0.12692 0.57730 0.6667 0.0258
CO2 Co 0.73158 -0.12692 0.57730 0.3333 0.0258
GA3 Ga 0.63532 0.19004 0.36767 0.6667 0.0266
CO3 Co 0.63532 0.19004 0.36767 0.3333 0.0266
P1 P 0.5716 -0.1306 0.6573 1.0 0.0275
P2 P 0.7317 0.1144 0.5759 1.0 0.0266
P3 P 0.6368 0.1869 0.8647 1.0 0.0279
O1 O 0.6270 -0.1711 0.6002 1.0 0.0457
O2 O 0.7156 0.1423 0.9528 1.0 0.0320
O3 O 0.5295 -0.0264 0.6227 1.0 0.0438
O4 O 0.7126 0.1169 0.4706 1.0 0.0415
O5 O 0.7572 0.0068 0.6151 1.0 0.0314
O6 O 0.8178 0.1799 0.6299 1.0 0.0412
O7 O 0.4905 -0.2056 0.6435 1.0 0.0339
O8 O 0.6349 0.1218 0.7831 1.0 0.0418
O9 O 0.6598 0.2974 0.8514 1.0 0.0405
O10 O 0.6379 -0.1243 0.7616 1.0 0.0436
O11 O 0.4594 0.1869 0.6233 1.0 0.0428
O12 O 0.6437 0.1546 0.5907 1.0 0.0432
C1 C 0.170 0.0043 0.139 1.0 0.0722
N1 N 0.124 -0.080 0.144 1.0 0.1149
C2 C 0.124 0.096 0.130 1.0 0.0949
C3 C 0.031 0.100 0.123 1.0 0.1006
C4 C -0.012 0.010 0.135 1.0 0.1386
C5 C 0.035 -0.081 0.144 1.0 0.1101
H11 H 0.2373 0.0011 0.1413 1.0 0.0819
H111 H 0.1579 -0.1462 0.1486 1.0 0.1164
H21 H 0.1594 0.1600 0.1290 1.0 0.1058
H31 H -0.0055 0.1653 0.1099 1.0 0.0990
H41 H -0.0774 0.0124 0.1370 1.0 0.1519
H51 H 0.0042 -0.1460 0.1501 1.0 0.1227




