data_Leonhardite
_cell_length_a         14.690
_cell_length_b         13.061
_cell_length_c         7.574
_cell_angle_alpha     90
_cell_angle_beta      112.01
_cell_angle_gamma     90


# setting 
# _symmetry_space_group_name_H-M 'C12/m1'


loop_
_symmetry_equiv_pos_as_xyz
'x,y,z'
'-x,y,-z'
'-x,-y,-z'
'x,-y,z'
'x+1/2,y+1/2,z'
'-x+1/2,y+1/2,-z'
'-x+1/2,-y+1/2,-z'
'x+1/2,-y+1/2,z'


loop_
_atom_site_label
_atom_site_type_sumbol
_atom_site_fract_x
_atom_site_fract_y
_atom_site_fract_z
_atom_site_occupancy
_atom_site_U_iso_or_equiv
SI1 Si 0.23810 0.38177 0.15515 1.0 0.0094
SI2 Si 0.08281 0.38285 0.32651 1.0 0.0090
SI3 Si 0.12982 0.30997 0.73198 0.05 0.0096
AL Al 0.12982 0.30997 0.73198 0.95 0.0096
O1 O 0.25981 0.5 0.22658 1.0 0.0114
O2 O 0.21108 0.37669 0.92717 1.0 0.0122
O3 O 0.14973 0.38130 0.55330 1.0 0.0128
O4 O 0.14659 0.33896 0.20664 1.0 0.0119
O5 O 0.33598 0.31686 0.26834 1.0 0.0119
O6 O 0.05002 0.5 0.26109 1.0 0.0114
O7 O 0.01051 0.31005 0.71791 1.0 0.0134
CA Ca 0.27540 0.5 0.75776 1.0 0.0134
O11 O 0.41286 0.5 0.03570 0.130 0.0334
O12 O 0.41489 0.45514 0.05147 0.311 0.0225
O13 O 0.5 0.43199 0.5 0.450 0.0250
O14 O 0.38445 0.42560 0.62407 0.327 0.0199
O15 O 0.37628 0.38162 0.65890 0.200 0.0303
O16 O 0.39527 0.37909 0.77087 0.286 0.0369
O17 O 0.40290 0.38065 0.84035 0.143 0.0175
O18 O 0.41917 0.37517 0.98301 0.113 0.0196
H1 H 0.47394 0.43341 0.03731 0.224 0.0396
H2 H 0.47076 0.5 0.05896 0.080 0.0462
H3 H 0.45425 0.47073 0.11239 0.123 0.0489
H4 H 0.40834 0.38935 0.12684 0.132 0.0510
H5 H 0.41832 0.42092 0.16151 0.224 0.0450
H6 H 0.44714 0.38924 0.41741 0.433 0.0346
H7 H 0.37143 0.37046 0.52675 0.456 0.0437
H8 H 0.36681 0.39410 0.53068 0.089 0.0471
H9 H 0.42706 0.47454 0.59007 0.314 0.0313
H10 H 0.42967 0.39404 0.66218 0.140 0.0272
H11 H 0.41716 0.33596 0.73197 0.145 0.0299
H12 H 0.44065 0.37303 0.73626 0.155 0.0420
H13 H 0.38262 0.30594 0.74108 0.126 0.0533
H14 H 0.37938 0.29567 0.81611 0.215 0.0328
H15 H 0.40073 0.33226 0.82437 0.090 0.0428
H16 H 0.47481 0.39229 0.89948 0.101 0.0475
H17 H 0.41649 0.31170 0.90170 0.141 0.0424




