data_1-aminoadamantane_NU-3
_cell_length_a         13.2251
_cell_length_b         13.2251
_cell_length_c         22.2916
_cell_angle_alpha     90
_cell_angle_beta      90
_cell_angle_gamma     120


# setting H
_symmetry_space_group_name_H-M 'R-3m'


loop_
_symmetry_equiv_pos_as_xyz
'x,y,z'
'-y,x-y,z'
'-x+y,-x,z'
'x-y,-y,-z'
'-x,-x+y,-z'
'y,x,-z'
'-x,-y,-z'
'y,-x+y,-z'
'x-y,x,-z'
'-x+y,y,z'
'x,x-y,z'
'-y,-x,z'
'x+1/3,y+2/3,z+2/3'
'-y+1/3,x-y+2/3,z+2/3'
'-x+y+1/3,-x+2/3,z+2/3'
'x-y+1/3,-y+2/3,-z+2/3'
'-x+1/3,-x+y+2/3,-z+2/3'
'y+1/3,x+2/3,-z+2/3'
'-x+1/3,-y+2/3,-z+2/3'
'y+1/3,-x+y+2/3,-z+2/3'
'x-y+1/3,x+2/3,-z+2/3'
'-x+y+1/3,y+2/3,z+2/3'
'x+1/3,x-y+2/3,z+2/3'
'-y+1/3,-x+2/3,z+2/3'
'x+2/3,y+1/3,z+1/3'
'-y+2/3,x-y+1/3,z+1/3'
'-x+y+2/3,-x+1/3,z+1/3'
'x-y+2/3,-y+1/3,-z+1/3'
'-x+2/3,-x+y+1/3,-z+1/3'
'y+2/3,x+1/3,-z+1/3'
'-x+2/3,-y+1/3,-z+1/3'
'y+2/3,-x+y+1/3,-z+1/3'
'x-y+2/3,x+1/3,-z+1/3'
'-x+y+2/3,y+1/3,z+1/3'
'x+2/3,x-y+1/3,z+1/3'
'-y+2/3,-x+1/3,z+1/3'


loop_
_atom_site_label
_atom_site_type_symbol
_atom_site_fract_x
_atom_site_fract_y
_atom_site_fract_z
_atom_site_occupancy
_atom_site_U_iso_or_equiv
SI1 Si 0.2327 0.0006 0.0694 1.0 0.0120
SI2 Si 0.33333 -0.0943 0.16667 1.0 0.0120
O1 O 0.2641 0.0 0.0 1.0 0.0149
O2 O 0.0956 -0.0956 0.0795 1.0 0.0231
O3 O 0.2492 0.1246 0.0890 1.0 0.0160
O4 O 0.4460 -0.1080 0.1544 1.0 0.0141
O5 O 0.3121 -0.0340 0.1078 1.0 0.0130
C1 C 0.0 0.0 0.2190 1.0 0.0680
C2 C 0.0635 0.1270 0.2449 1.0 0.0680
C3 C 0.0651 0.1302 0.3130 1.0 0.0680
C4 C 0.1248 0.0624 0.3386 1.0 0.0680
N1 N 0.1254 0.2508 0.3320 0.333 0.0680




