data_Liottite
_cell_length_a        12.870
_cell_length_b        12.870
_cell_length_c        16.096
_cell_angle_alpha    90
_cell_angle_beta     90
_cell_angle_gamma    120


# setting 
_symmetry_space_group_name_H-M 'P-6'


loop_
_symmetry_equiv_pos_as_xyz
'x,y,z'
'-x+y,-x,-z'
'-y,x-y,-z'
'-y,x-y,z'
'-x+y,-x,z'
'x,y,-z'


loop_
_atom_site_label
_atom_site_type_symbol
_atom_site_fract_x
_atom_site_fract_y
_atom_site_fract_z
_atom_site_occupancy
_atom_site_U_iso_or_equiv
Si1 Si 0.9954 0.7437 0.0 1.0 0.0077
Al1 Al 0.3339 0.4088 0.833 1.0 0.0081
Si2 Si 0.6718 0.0822 0.6637 1.0 0.0075
Al2 Al 0.3364 0.4097 0.5 1.0 0.0071
Si3 Si 0.5852 0.6661 0.8329 1.0 0.0077
Al3 Al 0.7378 0.7488 0.0 1.0 0.0076
Si4 Si 0.5873 0.67 0.5 1.0 0.0072
Al4 Al 0.9282 0.3431 0.6635 1.0 0.0079
O1 O 0.8771 0.1258 0.0 1.0 0.0250
O2 O 0.1025 0.8798 0.0 1.0 0.0206
O3 O 0.9943 0.6706 0.9182 1.0 0.0190
O4 O 0.6631 0.6698 0.9119 1.0 0.0203
O5 O 0.2179 0.7886 0.8253 1.0 0.0209
O6 O 0.4501 0.5552 0.8386 1.0 0.0209
O7 O 0.3463 0.331 0.7491 1.0 0.0179
O8 O 0.6574 0.656 0.7543 1.0 0.0193
O9 O 0.5464 0.4367 0.6545 1.0 0.0170
O10 O 0.7933 0.2105 0.6632 1.0 0.0266
O11 O 0.6772 0.0062 0.5856 1.0 0.0179
O12 O 0.6659 0.6735 0.5794 1.0 0.0177
O13 O 0.2173 0.7836 0.5 1.0 0.0198
O14 O 0.454 0.5557 0.5 1.0 0.0148
Ca1 Ca 0.3333 0.6667 0.5 1.0 0.0162
Ca2 Ca 0.3333 0.6667 0.833 1.0 0.0172
Ca3 Ca 0.0 0.0 0.9783 0.5 0.0219
Ca4 Ca 0.6667 0.3333 0.3915 0.5 0.0191
Ca5 Ca 0.6667 0.3333 0.3436 0.5 0.0294
K1 K 0.8463 0.1651 0.5 0.572 0.0170
K11 K 0.857 0.143 0.5 0.182 0.0170
K2 K 0.1125 0.8864 0.6651 0.684 0.0393
K22 K 0.145 0.851 0.675 0.074 0.0393
K3 K 0.8364 0.1722 0.8313 0.694 0.0248
K33 K 0.816 0.191 0.847 0.058 0.0248
K4 K 0.5543 0.4458 0.0 0.822 0.0338
F1 F 0.7476 0.27 0.5 0.167 0.0256
Cl1 Cl 0.3333 0.6667 0.0 1.0 0.0732
Cl2 Cl 0.6667 0.3333 0.5 0.5 0.1608
Cl3 Cl 0.3333 0.6667 0.3335 1.0 0.0742
S1 S 0.0 0.0 0.7971 0.5 0.0172
S11 S 0.977 0.013 0.7874 0.167 0.0338
S2 S 0.0357 0.017 0.5 0.333 0.0348
S3 S 0.6667 0.3333 0.8568 1.0 0.0410
O21 O 0.0 0.0 0.886 0.5 0.1006
O22 O 0.1213 0.0582 0.7676 0.667 0.0738
O23 O 0.056 0.094 0.723 0.167 0.1154
O24 O 0.119 0.054 0.845 0.333 0.0864
O25 O 0.119 0.058 0.426 0.333 0.0648
O26 O 0.11 0.051 0.479 0.333 0.1349
O27 O 0.6667 0.3333 0.2409 0.5 0.0350
O28 O 0.7285 0.4595 0.8789 0.667 0.0366
O29 O 0.692 0.298 0.211 0.167 0.0931
O30 O 0.728 0.288 0.913 0.333 0.1280




