data_Lithosite
_cell_length_a        15.197
_cell_length_b        10.233
_cell_length_c        8.435
_cell_angle_alpha    90.0
_cell_angle_beta     90.31
_cell_angle_gamma    90.0


# setting 
# _symmetry_space_group_name_H-M 'P1211'


loop_
_symmetry_equiv_pos_as_xyz
'x,y,z'
'-x,y+1/2,-z'


loop_
_atom_site_label
_atom_site_type_sumbol
_atom_site_fract_x
_atom_site_fract_y
_atom_site_fract_z
_atom_site_occupancy
_atom_site_U_iso_or_equiv
Si1 Si 0.262 0.219 0.435 1 0.0079
Si2 Si 0.259 0.221 0.063 1 0.0047
Si3 Si 0.561 0.192 0.053 1 0.0110
Si4 Si 0.914 0.111 0.559 1 0.0103
Si5 Si 0.243 0.778 0.939 1 0.0124
Si6 Si 0.237 0.777 0.565 1 0.0086
Si7 Si 0.586 0.886 0.439 1 0.0099
Si8 Si 0.940 0.807 0.942 1 0.0109
Al1 Al 0.910 0.110 0.930 1 0.0081
Al2 Al 0.563 0.188 0.443 1 0.0105
Al3 Al 0.936 0.809 0.558 1 0.0089
Al4 Al 0.590 0.891 0.064 1 0.0082
K1 K 0.697 0.054 0.752 1 0.0180
K2 K 0.422 0.046 0.752 1 0.0233
K3 K 0.136 0.064 0.738 1 0.0270
K4 K 0.801 0.947 0.247 1 0.0181
K5 K 0.078 0.938 0.248 1 0.0241
K6 K 0.370 0.944 0.244 1 0.0241
O1 O 0.248 0.188 0.249 1 0.0177
O2 O 0.995 0.219 0.948 1 0.0138
O3 O 0.005 0.721 0.436 1 0.0198
O4 O 0.293 0.101 0.958 1 0.0153
O5 O 0.548 0.027 0.501 1 0.0175
O6 O 0.552 0.039 0.997 1 0.0149
O7 O 0.706 0.597 0.468 1 0.0130
O8 O 0.547 0.218 0.245 1 0.0176
O9 O 0.824 0.153 0.453 1 0.0166
O10 O 0.824 0.153 0.054 1 0.0185
O11 O 0.123 0.598 0.257 1 0.0189
O12 O 0.167 0.272 0.501 1 0.0174
O13 O 0.156 0.245 0.001 1 0.0181
O14 O 0.247 0.821 0.754 1 0.0134
O15 O 0.507 0.781 0.451 1 0.0237
O16 O 0.511 0.773 0.051 1 0.0219
O17 O 0.196 0.908 0.479 1 0.0157
O18 O 0.947 0.961 0.000 1 0.0162
O19 O 0.946 0.970 0.486 1 0.0124
O20 O 0.204 0.904 0.024 1 0.0134
O21 O 0.048 0.295 0.240 1 0.0204
O22 O 0.690 0.854 0.970 1 0.0203
O23 O 0.665 0.844 0.560 1 0.0153
O24 O 0.624 0.898 0.263 1 0.0144
O25 O 0.663 0.234 0.001 1 0.0181
O26 O 0.331 0.745 0.494 1 0.0168




