data_LZ-135
_cell_length_a        31.3830
_cell_length_b        31.3830
_cell_length_c        7.6513
_cell_angle_alpha    90.00
_cell_angle_beta     90.00
_cell_angle_gamma    120.00


# setting 
_symmetry_space_group_name_H-M 'P63/mmc'


loop_
_symmetry_equiv_pos_as_xyz
'x,y,z'
'x-y,x,z+1/2'
'y,-x+y,z+1/2'
'-y,x-y,z'
'-x+y,-x,z'
'x-y,-y,-z'
'-x,-x+y,-z'
'-x,-y,z+1/2'
'y,x,-z'
'-y,-x,-z+1/2'
'-x+y,y,-z+1/2'
'x,x-y,-z+1/2'
'-x,-y,-z'
'-x+y,-x,-z-1/2'
'-y,x-y,-z-1/2'
'y,-x+y,-z'
'x-y,x,-z'
'-x+y,y,z'
'x,x-y,z'
'x,y,-z-1/2'
'-y,-x,z'
'y,x,z-1/2'
'x-y,-y,z-1/2'
'-x,-x+y,z-1/2'


loop_
_atom_site_label
_atom_site_type_symbol
_atom_site_fract_x
_atom_site_fract_y
_atom_site_fract_z
_atom_site_occupancy
_atom_site_U_iso_or_equiv
SiAl1 Si 0.0531 0.4314 0.4558 1.0 0.0114
SiAl2 Si 0.1912 0.4849 0.7500 1.0 0.0114
SiAl3 Si 0.1532 0.5262 0.4598 1.0 0.0114
SiAl4 Si 0.0538 0.2059 0.4564 1.0 0.0114
SiAl5 Si 0.0858 0.3848 0.7500 1.0 0.0114
SiAl6 Si 0.0917 0.2842 0.7500 1.0 0.0114
O1 O 0.0000 0.4268 0.5000 1.0 0.0228
O2 O 0.0942 0.4887 0.504 1.0 0.0228
O3 O 0.0591 0.3895 0.5686 1.0 0.0228
O4 O 0.0554 0.4180 0.2500 1.0 0.0228
O5 O 0.1907 0.5157 0.5772 1.0 0.0228
O6 O 0.2394 0.4788 0.7500 1.0 0.0228
O7 O 0.1444 0.4277 0.7500 1.0 0.0228
O8 O 0.1663 0.5242 0.2500 1.0 0.0228
O9 O 0.1625 0.5812 0.514 1.0 0.0228
O10 O 0.0000 0.1582 0.5000 1.0 0.0228
O11 O 0.0562 0.2219 0.2500 1.0 0.0228
O12 O 0.0940 0.1880 0.499 1.0 0.0228
O13 O 0.0624 0.2529 0.5758 1.0 0.0228
O14 O 0.0866 0.3332 0.7500 1.0 0.0228
O15 O 0.1508 0.3016 0.7500 1.0 0.0228
Ow1 O 0.0459 0.3114 0.2500 1.0 0.0507
Ow2 O 0.1077 0.076 0.2500 0.43 0.0507
Na1 Na 0.2238 0.6119 0.7500 0.49 0.0494
Na2 Na 0.2668 0.5335 0.403 0.34 0.0494
Na3 Na 0.1931 0.3862 0.7500 0.66 0.0494
Na4 Na 0.08444 0.5422 0.7500 0.473 0.0494
Na5 Na 0.01902 0.5095 0.616 0.26 0.0494
Na6 Na 0.0000 0.2923 0.500 0.88 0.0494




