data_Linde_Type_J
_cell_length_a        9.6312
_cell_length_b        9.6413
_cell_length_c        10.0220
_cell_angle_alpha    90.00
_cell_angle_beta     90.00
_cell_angle_gamma    90.00


# setting 
# _symmetry_space_group_name_H-M 'P212121'


loop_
_symmetry_equiv_pos_as_xyz
'x,y,z'
'x+1/2,-y+1/2,-z'
'-x,y+1/2,-z+1/2'
'-x+1/2,-y,z+1/2'


loop_
_atom_site_label
_atom_site_type_sumbol
_atom_site_fract_x
_atom_site_fract_y
_atom_site_fract_z
_atom_site_occupancy
_atom_site_U_iso_or_equiv
Si1 Si 0.6398 0.4261 0.2798 1.0 0.0138
Si2 Si 0.8468 0.1139 0.0237 1.0 0.0138
Al1 Al 0.3629 0.5941 0.2311 1.0 0.0138
Al2 Al 0.6728 0.3934 0.9751 1.0 0.0138
O1 O 0.2709 0.2688 0.0544 1.0 0.0212
O2 O 0.4966 0.3548 0.9336 1.0 0.0212
O3 O 0.2747 0.4247 0.8503 1.0 0.0212
O4 O 0.2721 0.0335 0.6171 1.0 0.0212
O5 O 0.7078 0.4491 0.1381 1.0 0.0212
O6 O 0.4823 0.0212 0.1950 1.0 0.0212
O7 O 0.5949 0.2689 0.2989 1.0 0.0212
O8 O 0.6699 0.0216 0.4336 1.0 0.0212
OW1 O 0.4887 0.2295 0.5918 1.0 0.0519
N1 N 0.4769 0.5299 0.6376 1.0 0.0410
H11 H 0.555 0.583 0.666 1.0 0.0621
H12 H 0.416 0.586 0.586 1.0 0.0621
H13 H 0.508 0.454 0.585 1.0 0.0621
H14 H 0.428 0.496 0.714 1.0 0.0621
N2 N 0.8021 0.2375 0.6543 1.0 0.0290
H21 H 0.821 0.274 0.741 1.0 0.0431
H22 H 0.860 0.282 0.590 1.0 0.0431
H23 H 0.820 0.140 0.654 1.0 0.0431
H24 H 0.707 0.253 0.632 1.0 0.0431




