data_Linde_Type_L
_cell_length_a         18.40
_cell_length_b         18.40
_cell_length_c         7.52
_cell_angle_alpha     90
_cell_angle_beta      90
_cell_angle_gamma     120


# setting 
# _symmetry_space_group_name_H-M 'P6/mmm'


loop_
_symmetry_equiv_pos_as_xyz
'x,y,z'
'x-y,x,z'
'y,-x+y,z'
'-y,x-y,z'
'-x+y,-x,z'
'x-y,-y,-z'
'-x,-x+y,-z'
'-x,-y,z'
'y,x,-z'
'-y,-x,-z'
'-x+y,y,-z'
'x,x-y,-z'
'-x,-y,-z'
'-x+y,-x,-z'
'-y,x-y,-z'
'y,-x+y,-z'
'x-y,x,-z'
'-x+y,y,z'
'x,x-y,z'
'x,y,-z'
'-y,-x,z'
'y,x,z'
'x-y,-y,z'
'-x,-x+y,z'


loop_
_atom_site_label
_atom_site_type_sumbol
_atom_site_fract_x
_atom_site_fract_y
_atom_site_fract_z
_atom_site_occupancy
_atom_site_U_iso_or_equiv
NA1 Na 0.3333 0.6667 0.0 0.7 0.0507
NA2 Na 0.0 0.303 0.0 0.6 0.0253
K1 K 0.3333 0.6667 0.5 1.0 0.0127
K2 K 0.0 0.5 0.5 0.9 0.0380
SI1 Si 0.0946 0.3595 0.5 0.75 0.0152
SI2 Si 0.1662 0.4989 0.2137 0.75 0.0076
AL1 Al 0.0946 0.3595 0.5 0.25 0.0152
AL2 Al 0.1662 0.4989 0.2137 0.25 0.0076
O1 O 0.0 0.2674 0.5 1.0 0.0127
O2 O 0.1646 0.3292 0.5 1.0 0.0127
O3 O 0.2620 0.5240 0.260 1.0 0.0317
O4 O 0.1004 0.4078 0.330 1.0 0.0127
O5 O 0.4261 0.8522 0.275 1.0 0.0165
O6 O 0.1360 0.4691 0.0 1.0 0.0101
H2O1 O2-(H2O) 0.0700 0.1400 0.5 0.7 0.0507
H2O2 O2-(H2O) 0.0 0.09 0.5 0.25 0.0887
H2O3 O2-(H2O) 0.0 0.0 0.5 0.5 0.1900
H2O4 O2-(H2O) 0.0 0.135 0.243 0.25 0.0507
H2O5 O2-(H2O) 0.092 0.184 0.203 0.25 0.0633
H2O6 O2-(H2O) 0.0 0.0 0.189 0.7 0.1267
H2O7 O2-(H2O) 0.116 0.232 0.0 0.7 0.0760
H2O8 O2-(H2O) 0.0 0.195 0.0 0.5 0.0633




