data_Perlialite
_cell_length_a         18.5432
_cell_length_b         18.5432
_cell_length_c         7.5310
_cell_angle_alpha     90
_cell_angle_beta      90
_cell_angle_gamma     120


# setting 
# _symmetry_space_group_name_H-M 'P6/mmm'


loop_
_symmetry_equiv_pos_as_xyz
'x,y,z'
'x-y,x,z'
'y,-x+y,z'
'-y,x-y,z'
'-x+y,-x,z'
'x-y,-y,-z'
'-x,-x+y,-z'
'-x,-y,z'
'y,x,-z'
'-y,-x,-z'
'-x+y,y,-z'
'x,x-y,-z'
'-x,-y,-z'
'-x+y,-x,-z'
'-y,x-y,-z'
'y,-x+y,-z'
'x-y,x,-z'
'-x+y,y,z'
'x,x-y,z'
'x,y,-z'
'-y,-x,z'
'y,x,z'
'x-y,-y,z'
'-x,-x+y,z'


loop_
_atom_site_label
_atom_site_type_sumbol
_atom_site_fract_x
_atom_site_fract_y
_atom_site_fract_z
_atom_site_occupancy
_atom_site_U_iso_or_equiv
K1 K 0.33 0.66 0.0 0.18 0.0700
K2 K 0.33 0.66 0.5 0.38 0.0149
K21 K 0.33 0.66 0.427 0.31 0.0149
K3 K 0.297 0.0 0.0 0.517 0.0460
Tl3 Tl 0.315 0.0 0.0 0.483 0.0460
K4 K 0.5 0.0 0.5 0.699 0.0410
Tl4 Tl 0.5 0.0 0.5 0.301 0.0410
Si1 Si 0.0924 0.3546 0.5 0.667 0.0320
Si2 Si 0.1672 0.4975 0.215 0.667 0.0621
Al1 Al 0.0924 0.3546 0.5 0.333 0.0320
Al2 Al 0.1672 0.4975 0.215 0.333 0.0621
O1 O 0.0 0.272 0.5 1.0 0.0100
O2 O 0.158 0.316 0.5 1.0 0.0600
O3 O 0.260 0.520 0.288 1.0 0.0700
O4 O 0.1038 0.4125 0.326 1.0 0.0231
O5 O 0.4092 0.818 0.213 1.0 0.0600
O6 O 0.156 0.483 0.0 1.0 0.0149
H2O1 O2-(H2O) 0.11 0.0 0.0 0.40 0.0900
H2O2 O2-(H2O) 0.134 0.0 0.37 0.91 0.0900
H2O3 O2-(H2O) 0.28 0.14 0.0 0.25 0.0300
H2O4 O2-(H2O) 0.28 0.14 0.26 0.19 0.1001
H2O5 O2-(H2O) 0.0 0.0 0.172 0.70 0.1001
H2O6 O2-(H2O) 0.560 0.280 0.0 0.66 0.1001




