data_NaZ-21
_cell_length_a         36.95
_cell_length_b         36.95
_cell_length_c         36.95
_cell_angle_alpha     90
_cell_angle_beta      90
_cell_angle_gamma     90


# setting 2
# _symmetry_space_group_name_H-M 'Fd-3'


loop_
_symmetry_equiv_pos_as_xyz
'x,y,z'
'z,x,y'
'y,z,x'
'-y+1/4,-z+1/4,x'
'z,-x+1/4,-y+1/4'
'-y+1/4,z,-x+1/4'
'-z+1/4,-x+1/4,y'
'-z+1/4,x,-y+1/4'
'y,-z+1/4,-x+1/4'
'x,-y+1/4,-z+1/4'
'-x+1/4,y,-z+1/4'
'-x+1/4,-y+1/4,z'
'-x,-y,-z'
'-z,-x,-y'
'-y,-z,-x'
'y-1/4,z-1/4,-x'
'-z,x-1/4,y-1/4'
'y-1/4,-z,x-1/4'
'z-1/4,x-1/4,-y'
'z-1/4,-x,y-1/4'
'-y,z-1/4,x-1/4'
'-x,y-1/4,z-1/4'
'x-1/4,-y,z-1/4'
'x-1/4,y-1/4,-z'
'x,y+1/2,z+1/2'
'z,x+1/2,y+1/2'
'y,z+1/2,x+1/2'
'-y+1/4,-z+3/4,x+1/2'
'z,-x+3/4,-y+3/4'
'-y+1/4,z+1/2,-x+3/4'
'-z+1/4,-x+3/4,y+1/2'
'-z+1/4,x+1/2,-y+3/4'
'y,-z+3/4,-x+3/4'
'x,-y+3/4,-z+3/4'
'-x+1/4,y+1/2,-z+3/4'
'-x+1/4,-y+3/4,z+1/2'
'-x,-y+1/2,-z+1/2'
'-z,-x+1/2,-y+1/2'
'-y,-z+1/2,-x+1/2'
'y-1/4,z+1/4,-x+1/2'
'-z,x+1/4,y+1/4'
'y-1/4,-z+1/2,x+1/4'
'z-1/4,x+1/4,-y+1/2'
'z-1/4,-x+1/2,y+1/4'
'-y,z+1/4,x+1/4'
'-x,y+1/4,z+1/4'
'x-1/4,-y+1/2,z+1/4'
'x-1/4,y+1/4,-z+1/2'
'x+1/2,y,z+1/2'
'z+1/2,x,y+1/2'
'y+1/2,z,x+1/2'
'-y+3/4,-z+1/4,x+1/2'
'z+1/2,-x+1/4,-y+3/4'
'-y+3/4,z,-x+3/4'
'-z+3/4,-x+1/4,y+1/2'
'-z+3/4,x,-y+3/4'
'y+1/2,-z+1/4,-x+3/4'
'x+1/2,-y+1/4,-z+3/4'
'-x+3/4,y,-z+3/4'
'-x+3/4,-y+1/4,z+1/2'
'-x+1/2,-y,-z+1/2'
'-z+1/2,-x,-y+1/2'
'-y+1/2,-z,-x+1/2'
'y+1/4,z-1/4,-x+1/2'
'-z+1/2,x-1/4,y+1/4'
'y+1/4,-z,x+1/4'
'z+1/4,x-1/4,-y+1/2'
'z+1/4,-x,y+1/4'
'-y+1/2,z-1/4,x+1/4'
'-x+1/2,y-1/4,z+1/4'
'x+1/4,-y,z+1/4'
'x+1/4,y-1/4,-z+1/2'
'x+1/2,y+1/2,z'
'z+1/2,x+1/2,y'
'y+1/2,z+1/2,x'
'-y+3/4,-z+3/4,x'
'z+1/2,-x+3/4,-y+1/4'
'-y+3/4,z+1/2,-x+1/4'
'-z+3/4,-x+3/4,y'
'-z+3/4,x+1/2,-y+1/4'
'y+1/2,-z+3/4,-x+1/4'
'x+1/2,-y+3/4,-z+1/4'
'-x+3/4,y+1/2,-z+1/4'
'-x+3/4,-y+3/4,z'
'-x+1/2,-y+1/2,-z'
'-z+1/2,-x+1/2,-y'
'-y+1/2,-z+1/2,-x'
'y+1/4,z+1/4,-x'
'-z+1/2,x+1/4,y-1/4'
'y+1/4,-z+1/2,x-1/4'
'z+1/4,x+1/4,-y'
'z+1/4,-x+1/2,y-1/4'
'-y+1/2,z+1/4,x-1/4'
'-x+1/2,y+1/4,z-1/4'
'x+1/4,-y+1/2,z-1/4'
'x+1/4,y+1/4,-z'


loop_
_atom_site_label
_atom_site_type_sumbol
_atom_site_fract_x
_atom_site_fract_y
_atom_site_fract_z
_atom_site_occupancy
_atom_site_U_iso_or_equiv
NA1 Na 0.0420 0.0420 0.0420 1.0 0.0380
NA2 Na 0.2312 0.2132 0.2132 0.56 0.0101
NA3 Na 0.2337 0.2337 0.2337 0.26 0.0380
NA4 Na 0.6964 0.6964 0.6964 0.77 0.0304
NA5 Na 0.4184 0.4184 0.4184 0.53 0.0380
NA6 Na 0.4322 0.4322 0.4322 0.21 0.0443
NA7 Na 0.4564 0.4564 0.4564 0.09 0.0418
NA8 Na 0.1770 0.0742 0.8278 0.46 0.0266
NA9 Na 0.1895 0.0621 0.8156 0.24 0.0304
NA10 Na 0.2006 0.0501 0.7983 0.23 0.0329
NA11 Na 0.1805 0.0705 0.4323 1.0 0.0342
NA12 Na 0.2723 0.1111 0.3621 0.6 0.0355
NA13 Na 0.2541 0.1110 0.3615 0.25 0.0114
NA14 Na 0.2311 0.1084 0.3640 0.15 0.0380
SI1 Si 0.2481 0.0633 0.6252 1.0 0.0051
SI2 Si 0.3103 0.1213 0.7456 1.0 0.0063
SI3 Si 0.1717 0.0154 0.9540 1.0 0.0051
SI4 Si 0.2230 0.0852 0.2858 1.0 0.0089
AL1 Al 0.3141 -0.0016 0.8749 1.0 0.0063
AL2 Al 0.2484 0.1221 0.8066 1.0 0.0063
AL3 Al 0.2965 0.0164 0.0794 1.0 0.0051
AL4 Al 0.2850 0.0853 0.2273 1.0 0.0089
O1 O 0.2151 0.0365 0.6145 1.0 0.0203
O2 O 0.1613 0.0917 0.7357 1.0 0.0127
O3 O 0.3857 0.0308 0.0360 1.0 0.0215
O4 O 0.2580 0.0866 0.5894 1.0 0.0165
O5 O 0.1135 0.0417 0.4616 1.0 0.0177
O6 O 0.1982 0.0495 0.9583 1.0 0.0203
O7 O 0.3626 0.0346 0.7917 1.0 0.0177
O8 O 0.3261 0.0877 0.5060 1.0 0.0228
O9 O 0.2529 0.0944 0.8444 1.0 0.0177
O10 O 0.3209 0.0698 0.2537 1.0 0.0241
O11 O 0.2160 0.1228 0.9583 1.0 0.0215
O12 O 0.2652 0.0686 0.9861 1.0 0.0228
O13 O 0.2454 0.1656 0.8233 1.0 0.0241
O14 O 0.1723 0.0018 0.2433 1.0 0.0253
O15 O 0.2803 0.0436 0.3807 1.0 0.0215
O16 O 0.2839 0.0653 0.1852 1.0 0.0228
H2O1 O2-(H2O) 0.2685 0.2685 0.2685 0.89 0.0925
H2O2 O2-(H2O) 0.3699 0.0673 0.1659 0.17 0.0329
H2O3 O2-(H2O) 0.3693 0.0758 0.1748 0.63 0.0481
H2O4 O2-(H2O) 0.3679 0.0911 0.1828 0.2 0.0291
H2O5 O2-(H2O) 0.0754 0.0754 0.0754 0.4 0.0798
H2O6 O2-(H2O) 0.3268 0.1250 0.6250 0.86 0.0697
H2O7 O2-(H2O) 0.1558 0.0849 0.8880 0.6 0.0684
H2O8 O2-(H2O) 0.1471 0.1066 0.8896 0.36 0.0583
H2O9 O2-(H2O) 0.3553 0.0276 0.3912 0.38 0.0798
H2O10 O2-(H2O) 0.3496 0.0471 0.3987 0.61 0.0431
H2O11 O2-(H2O) 0.2063 0.0449 0.1043 0.29 0.0481




