data_Marinellite
_cell_length_a        12.880
_cell_length_b        12.880
_cell_length_c        31.761
_cell_angle_alpha    90.0
_cell_angle_beta     90.0
_cell_angle_gamma    120.0


# setting 
# _symmetry_space_group_name_H-M 'P31c'


loop_
_symmetry_equiv_pos_as_xyz
'x,y,z'
'-y,x-y,z'
'-x+y,-x,z'
'y,x,z+1/2'
'x-y,-y,z+1/2'
'-x,-x+y,z+1/2'


loop_
_atom_site_label
_atom_site_type_sumbol
_atom_site_fract_x
_atom_site_fract_y
_atom_site_fract_z
_atom_site_occupancy
_atom_site_U_iso_or_equiv
Si1 Si 0.251 0.9984 0.0144 1 0.0089
Si2 Si 0.9171 0.5809 0.0975 1 0.0089
Si3 Si 0.9164 0.5839 0.4302 1 0.0089
Si4 Si 0.5863 0.6698 0.18 1 0.0089
Si5 Si 0.585 0.6716 0.3468 1 0.0089
Si6 Si 0.584 0.917 0.7634 1 0.0076
Al1 Al 0.748 0.0022 0.0132 1 0.0114
Al2 Al 0.411 0.0814 0.0972 1 0.0114
Al3 Al 0.417 0.0815 0.4297 1 0.0114
Al4 Al 0.5811 0.9241 0.1804 1 0.0076
Al5 Al 0.5798 0.923 0.3455 1 0.0076
Al6 Al 0.4137 0.0769 0.2637 1 0.0076
O11 O 0.427 0.872 0.3468 1 0.0190
O12 O 0.405 0.205 0.2714 1 0.0203
O21 O 0.97 0.639 0.0487 1 0.0089
O22 O 0.995 0.688 0.4655 1 0.0089
O31 O 0.217 0.103 0.0123 1 0.0266
O32 O 0.248 0.12 0.525 1 0.0266
O41 O 0.418 0.212 0.1062 1 0.0329
O42 O 0.453 0.229 0.43 1 0.0329
O51 O 0.33 0.356 0.1321 1 0.0127
O52 O 0.364 0.343 0.3836 1 0.0127
O61 O 0.65 0.664 0.135 1 0.0355
O62 O 0.659 0.662 0.386 1 0.0355
O71 O 0.887 0.441 0.0942 1 0.0329
O72 O 0.918 0.463 0.4407 1 0.0329
O81 O 0.665 0.661 0.2171 1 0.0241
O82 O 0.647 0.681 0.2999 1 0.0241
O91 O 0.36 0.33 0.2166 1 0.0127
O92 O 0.338 0.354 0.2994 1 0.0127
O10 O 0.595 0.798 0.3548 1 0.0165
O10 O 0.595 0.798 0.3548 1 0.0165
O11 O 0.427 0.872 0.3468 1 0.0190
O11 O 0.427 0.872 0.3468 1 0.0190
O12 O 0.405 0.205 0.2714 1 0.0203
O13 O 0.881 0.445 0.2652 1 0.0215
S1 S 0 0 0.1163 1 0.0747
OA1 O 0 0 0.0703 1 0.1203
OB1 O 0.072 0.121 0.131 1 0.0405
S2 S 0 0 0.2559 1 0.0380
OA2 O 0 0 0.2099 0.5 0.1203
OB2 O 0.068 0.115 0.277 0.5 0.0355
OA2 O 0 0 0.2099 0.5 0.1203
OB2 O 0.068 0.115 0.277 0.5 0.0355
S3 S 0 0 0.4092 1 0.0355
OA3 O 0 0 0.45 1 0.1203
OB3 O 0.062 0.121 0.3886 1 0.0760
S4 S 0.33333 0.66667 0.467 1 0.1102
OA4 O 0.33333 0.66667 0.513 0.5 0.1203
OB4 O 0.463 0.727 0.444 0.5 0.0405
OA4 O 0.33333 0.66667 0.513 0.5 0.1203
OB4 O 0.463 0.727 0.444 0.5 0.0405
Cl5 Cl 0.372 0.667 0.0589 1 0.0431
K1 K 0.232 0.1159 0.1808 1 0.0494
K2 K 0.2302 0.1164 0.3391 0.91 0.0355
Na1 Na 0.201 0.401 0.0856 0.5 0.0393
Na1b Ca 0.16 0.316 0.1001 0.5 0.0393
Na2 Na 0.6882 0.844 0.2608 1 0.0304
Na3 Na 0.153 0.839 0.4259 1 0.0203
Ca1 Ca 0 0 0.5256 0.54 0.0165
Ca1b Ca 0 0 0.507 0.27 0.0165
Na4 Na 0.33333 0.66667 0.159 0.5 0.0215
Na4b Na 0.33333 0.66667 0.186 0.5 0.0215
Na5 Na 0.33333 0.66667 0.3783 0.5 0.0127
Na5b Na 0.33333 0.66667 0.3553 0.5 0.0127
Na6 Na 0.66667 0.33333 0.102 0.5 0.0494
Na6b Na 0.66667 0.33333 0.065 0.5 0.0494
Na7 Na 0.66667 0.33333 0.283 0.5 0.0304
Na7b Na 0.66667 0.33333 0.247 0.5 0.0304
Na8 Na 0.66667 0.33333 0.469 0.5 0.0215
Na8b Na 0.66667 0.33333 0.452 0.5 0.0215
Na9 Ca 0.019 0.511 0.0161 0.37 0.0304
Na9b Ca 0.919 0.457 0.0036 0.32 0.0304
W1 O 0.31 0.609 0.265 0.33 0.0899
W2 O 0.66667 0.33333 0.357 1 0.0595
W3 O 0.712 0.34 0.185 0.33 0.0697




