data_all_silica_ZSM-11
_cell_length_a        20.0599
_cell_length_b        20.0599
_cell_length_c        13.4031
_cell_angle_alpha    90.00
_cell_angle_beta     90.00
_cell_angle_gamma    90.00


# setting 
# _symmetry_space_group_name_H-M 'I-4m2'


loop_
_symmetry_equiv_pos_as_xyz
'x,y,z'
'y,-x,-z'
'-y,x,-z'
'-x,-y,z'
'y,x,-z'
'-y,-x,-z'
'-x,y,z'
'x,-y,z'
'x+1/2,y+1/2,z+1/2'
'y+1/2,-x+1/2,-z+1/2'
'-y+1/2,x+1/2,-z+1/2'
'-x+1/2,-y+1/2,z+1/2'
'y+1/2,x+1/2,-z+1/2'
'-y+1/2,-x+1/2,-z+1/2'
'-x+1/2,y+1/2,z+1/2'
'x+1/2,-y+1/2,z+1/2'


loop_
_atom_site_label
_atom_site_type_sumbol
_atom_site_fract_x
_atom_site_fract_y
_atom_site_fract_z
_atom_site_occupancy
_atom_site_U_iso_or_equiv
Si1 Si 0.0765 0.0765 0.0 1.00 0.0172
Si2 Si 0.1215 0.1870 0.1445 1.00 0.0172
Si3 Si 0.0768 0.2249 0.3567 1.00 0.0172
Si4 Si 0.2792 0.1888 0.1395 1.00 0.0172
Si5 Si 0.3066 0.0757 -0.0085 1.00 0.0172
Si6 Si 0.1900 0.1900 0.5 1.00 0.0172
Si7 Si 0.0756 0.3800 0.3564 1.00 0.0172
O1 O 0.0894 0.0 0.0266 1.00 0.0317
O2 O 0.1009 0.1188 0.0931 1.00 0.0317
O3 O 0.0942 0.1904 0.2538 1.00 0.0317
O4 O 0.2005 0.1924 0.1459 1.00 0.0317
O5 O 0.3026 0.1200 0.0877 1.00 0.0317
O6 O 0.2974 0.0 0.0229 1.00 0.0317
O7 O 0.3104 0.1897 0.25 1.00 0.0317
O8 O 0.1192 0.1933 0.4458 1.00 0.0317
O9 O 0.2503 0.1935 0.4230 1.00 0.0317
O10 O 0.0941 0.3027 0.3460 1.00 0.0317
O11 O 0.0 0.2130 0.3830 1.00 0.0317
O12 O 0.0 0.3908 0.3883 1.00 0.0317
O13 O 0.0928 0.2489 0.0861 1.00 0.0317
O14 O 0.1222 0.4137 0.4362 1.00 0.0317
O15 O 0.0867 0.4133 0.25 1.00 0.0317




