data_Merlinoite
_cell_length_a         14.116
_cell_length_b         14.229
_cell_length_c         9.946
_cell_angle_alpha     90
_cell_angle_beta      90
_cell_angle_gamma     90


# setting 
# _symmetry_space_group_name_H-M 'Immm'


loop_
_symmetry_equiv_pos_as_xyz
'x,y,z'
'x,-y,-z'
'-x,y,-z'
'-x,-y,z'
'-x,-y,-z'
'-x,y,z'
'x,-y,z'
'x,y,-z'
'x+1/2,y+1/2,z+1/2'
'x+1/2,-y+1/2,-z+1/2'
'-x+1/2,y+1/2,-z+1/2'
'-x+1/2,-y+1/2,z+1/2'
'-x+1/2,-y+1/2,-z+1/2'
'-x+1/2,y+1/2,z+1/2'
'x+1/2,-y+1/2,z+1/2'
'x+1/2,y+1/2,-z+1/2'


loop_
_atom_site_label
_atom_site_type_sumbol
_atom_site_fract_x
_atom_site_fract_y
_atom_site_fract_z
_atom_site_occupancy
_atom_site_U_iso_or_equiv
NA3 Na 0.5 0.5 0.275 0.054 0.1520
NA4 Na 0.390 0.363 0.0 0.022 0.1520
NA5 Na 0.333 0.380 0.0 0.036 0.1520
K1 K 0.156 0.5 0.0 0.419 0.0481
K2 K 0.5 0.192 0.0 0.419 0.0481
K3 K 0.5 0.5 0.275 0.09 0.1520
K4 K 0.390 0.363 0.0 0.136 0.1520
K5 K 0.333 0.380 0.0 0.06 0.1520
CA3 Ca 0.5 0.5 0.275 0.147 0.1520
CA4 Ca 0.390 0.363 0.0 0.059 0.1520
CA5 Ca 0.333 0.380 0.0 0.098 0.1520
BA1 Ba 0.156 0.5 0.0 0.041 0.0481
BA2 Ba 0.5 0.192 0.0 0.041 0.0481
BA3 Ba 0.5 0.5 0.275 0.009 0.1520
BA4 Ba 0.390 0.363 0.0 0.004 0.1520
BA5 Ba 0.333 0.380 0.0 0.006 0.1520
SI1 Si 0.1097 0.2473 0.1563 0.71 0.0127
SI2 Si 0.2816 0.1102 0.1596 0.71 0.0127
AL1 Al 0.1097 0.2473 0.1563 0.29 0.0127
AL2 Al 0.2816 0.1102 0.1596 0.29 0.0127
O1 O 0.1235 0.2830 0.0 1.0 0.0228
O2 O 0.3089 0.1177 0.0 1.0 0.0190
O3 O 0.0 0.2155 0.1839 1.0 0.0228
O4 O 0.2767 0.0 0.2096 1.0 0.0241
O5 O 0.1765 0.1568 0.1924 1.0 0.0291
O6 O 0.3661 0.1638 0.2454 1.0 0.0329
H2O1 O2-(H2O) 0.5 0.0 0.0 1.0 0.0861
H2O2 O2-(H2O) 0.0 0.5 0.158 1.0 0.0621
H2O3 O2-(H2O) 0.385 0.5 0.159 0.6 0.1241
H2O4 O2-(H2O) 0.5 0.5 0.0 0.2 0.0469
H2O5 O2-(H2O) 0.459 0.274 0.0 0.2 0.0735
H2O6 O2-(H2O) 0.251 0.464 0.0 0.21 0.0456
H2O7 O2-(H2O) 0.446 0.420 0.062 0.2 0.1418
H2O8 O2-(H2O) 0.443 0.5 0.5 0.44 0.1520




