data_ZSM-57_SiO2_Framework
_cell_length_a         7.4510
_cell_length_b         14.1711
_cell_length_c         18.767
_cell_angle_alpha     90
_cell_angle_beta      90
_cell_angle_gamma     90


# setting 
_symmetry_space_group_name_H-M 'Imm2'


loop_
_symmetry_equiv_pos_as_xyz
'x,y,z'
'-x,-y,z'
'-x,y,z'
'x,-y,z'
'x+1/2,y+1/2,z+1/2'
'-x+1/2,-y+1/2,z+1/2'
'-x+1/2,y+1/2,z+1/2'
'x+1/2,-y+1/2,z+1/2'


loop_
_atom_site_label
_atom_site_type_symbol
_atom_site_fract_x
_atom_site_fract_y
_atom_site_fract_z
_atom_site_occupancy
_atom_site_U_iso_or_equiv
SI1 Si 0.0000 0.0000 0.0000 1 0.0000
SI2 Si 0.0000 0.2043 0.9486 1 0.0000
SI3 Si 0.0000 0.6998 0.7986 1 0.0000
SI4 Si 0.2941 0.0000 0.1176 1 0.0000
SI5 Si 0.2057 0.1963 0.1848 1 0.0000
SI6 Si 0.2939 0.7017 0.0427 1 0.0000
SI7 Si 0.0000 0.5000 0.8668 1 0.0000
SI8 Si 0.2945 0.5000 0.9848 1 0.0000
O1 O 0.0000 0.0915 0.9503 1 0.0000
O2 O 0.1754 0.0000 0.0473 1 0.0000
O3 O 0.0000 0.2369 0.8678 1 0.0000
O4 O 0.1755 0.2405 0.9876 1 0.0000
O5 O 0.8255 0.7253 0.7524 1 0.0000
O6 O 0.0000 0.5912 0.8173 1 0.0000
O7 O 0.5000 0.0000 0.0946 1 0.0000
O8 O 0.2531 0.0916 0.1632 1 0.0000
O9 O 0.0000 0.2031 0.2079 1 0.0000
O10 O 0.2441 0.2688 0.1221 1 0.0000
O11 O 0.5000 0.7234 0.0276 1 0.0000
O12 O 0.5000 0.5000 0.9611 1 0.0000
O13 O 0.1748 0.5000 0.9149 1 0.0000
O14 O 0.2570 0.5917 0.0319 1 0.0000




