data_Maricopaite
_cell_length_a         19.432
_cell_length_b         19.702
_cell_length_c         7.538
_cell_angle_alpha     90
_cell_angle_beta      90
_cell_angle_gamma     90


# setting 
_symmetry_space_group_name_H-M 'Cm2m'


loop_
_symmetry_equiv_pos_as_xyz
'x,y,z'
'-x,y,-z'
'-x,y,z'
'x,y,-z'
'x+1/2,y+1/2,z'
'-x+1/2,y+1/2,-z'
'-x+1/2,y+1/2,z'
'x+1/2,y+1/2,-z'


loop_
_atom_site_label
_atom_site_type_symbol
_atom_site_fract_x
_atom_site_fract_y
_atom_site_fract_z
_atom_site_occupancy
_atom_site_U_iso_or_equiv
Pb1 Pb 0.0975 0.1044 0.500 0.83 0.0285
Pb2 Pb 0.0977 0.8988 0.0 0.245 0.0232
Pb3 Pb 0.0 0.9662 0.2377 0.622 0.0290
Pb4 Pb 0.0 0.0359 0.2516 0.175 0.0431
Si1 Si 0.1790 0.2907 0.2956 0.736 0.0148
Si2 Si 0.3211 0.2169 0.2043 0.735 0.0175
Si3 Si 0.2546 0.9283 0.2076 0.736 0.0149
Si4 Si 0.1395 0.9238 0.500 0.736 0.0127
Si5 Si 0.1342 0.0843 0.0 1.0 0.0139
Si6 Si 0.2554 0.0779 0.2885 0.736 0.0160
Si7 Si 0.0794 0.2311 0.0 0.736 0.0203
Si8 Si 0.0817 0.7763 0.500 0.736 0.0139
Al1 Al 0.1790 0.2907 0.2956 0.264 0.0148
Al2 Al 0.3211 0.2169 0.2043 0.264 0.0175
Al3 Al 0.2546 0.9283 0.2076 0.264 0.0149
Al4 Al 0.1395 0.9238 0.500 0.234 0.0127
Al6 Al 0.2554 0.0779 0.2885 0.234 0.0160
Al7 Al 0.0794 0.2311 0.0 0.234 0.0203
Al8 Al 0.0817 0.7763 0.500 0.234 0.0139
O1 O 0.1861 0.9200 0.3250 1.0 0.0367
O2 O 0.0810 0.144 0.0 1.0 0.0291
O3 O 0.0932 0.9916 0.500 1.0 0.0481
O4 O 0.0862 0.8586 0.500 1.0 0.0177
O5 O 0.3443 0.2307 0.0 1.0 0.0279
O6 O 0.1820 0.0864 0.1811 1.0 0.0215
O7 O 0.3134 0.1342 0.2417 1.0 0.0291
O8 O 0.1607 0.2769 0.500 1.0 0.0443
O9 O 0.0863 0.0162 0.0 1.0 0.0304
O10 O 0.1865 0.3708 0.2641 1.0 0.0253
O11 O 0.2500 0.2536 0.2506 1.0 0.0456
O12 O 0.1164 0.2604 0.1761 1.0 0.0380
O13 O 0.3832 0.2424 0.3218 1.0 0.0418
O14 O 0.2897 0.0030 0.2460 1.0 0.0317
O15 O 0.2278 0.9219 0.0 1.0 0.0317
O16 O 0.2340 0.0838 0.500 1.0 0.0253
O17 O 0.0 0.2530 0.0 1.0 0.0317
O18 O 0.0 0.7557 0.500 1.0 0.0329
H2O19 O2-(H2O) 0.0 0.0828 0.3098 0.925 0.0279
H2O20 O2-(H2O) 0.0 0.231 0.500 0.95 0.0329
H2O21 O2-(H2O) 0.085 0.561 0.0 0.6 0.0329
H2O22 O2-(H2O) 0.0 0.501 0.099 0.5 0.0329
H2O23 O2-(H2O) 0.061 0.594 0.500 0.275 0.0329
H2O24 O2-(H2O) 0.077 0.456 0.241 0.175 0.0329
H2O25 O2-(H2O) 0.074 0.457 0.385 0.2 0.0329
H2O26 O2-(H2O) 0.079 0.871 0.0 0.575 0.0329
H2O27 O2-(H2O) 0.070 0.151 0.500 0.175 0.0329
H2O28 O2-(H2O) 0.0 0.933 0.215 0.475 0.0329




