data_ZSM-10
_cell_length_a        31.390
_cell_length_b        31.390
_cell_length_c        7.5147
_cell_angle_alpha    90.0
_cell_angle_beta     90.0
_cell_angle_gamma    120.0


# setting 
# _symmetry_space_group_name_H-M 'P6/mmm'


loop_
_symmetry_equiv_pos_as_xyz
'x,y,z'
'x-y,x,z'
'y,-x+y,z'
'-y,x-y,z'
'-x+y,-x,z'
'x-y,-y,-z'
'-x,-x+y,-z'
'-x,-y,z'
'y,x,-z'
'-y,-x,-z'
'-x+y,y,-z'
'x,x-y,-z'
'-x,-y,-z'
'-x+y,-x,-z'
'-y,x-y,-z'
'y,-x+y,-z'
'x-y,x,-z'
'-x+y,y,z'
'x,x-y,z'
'x,y,-z'
'-y,-x,z'
'y,x,z'
'x-y,-y,z'
'-x,-x+y,z'


loop_
_atom_site_label
_atom_site_type_sumbol
_atom_site_fract_x
_atom_site_fract_y
_atom_site_fract_z
_atom_site_occupancy
_atom_site_U_iso_or_equiv
Si1 Si 0.2049 0.1516 0.5 1.0 0.0180
Si2 Si 0.2869 0.1951 0.2096 1.0 0.0180
Si3 Si 0.3827 0.2885 0.2127 1.0 0.0180
Si4 Si 0.4245 0.3702 0.5 1.0 0.0180
Si5 Si 0.5205 0.3720 0.5 1.0 0.0180
Si6 Si 0.4804 0.2898 0.2120 1.0 0.0180
O7 O 0.1559 0.1559 0.5 1.0 0.0250
O8 O 0.1868 0.0934 0.5 1.0 0.0250
O9 O 0.2372 0.1781 0.3244 1.0 0.0250
O10 O 0.3005 0.1503 0.2240 1.0 0.0250
O11 O 0.2779 0.2025 0.0 1.0 0.0250
O12 O 0.3307 0.2454 0.2885 1.0 0.0250
O13 O 0.3802 0.2970 0.0 1.0 0.0250
O14 O 0.3976 0.3384 0.3235 1.0 0.0250
O15 O 0.4325 0.2725 0.2536 1.0 0.0250
O16 O 0.4184 0.4184 0.5 1.0 0.0250
O17 O 0.4823 0.3866 0.5 1.0 0.0250
O18 O 0.5793 0.4207 0.5 1.0 0.0250
O19 O 0.5176 0.3386 0.3254 1.0 0.0250
O20 O 0.4890 0.2445 0.2621 1.0 0.0250
O21 O 0.4903 0.3015 0.0 1.0 0.0250




