data_ZSM-48_polymorph_6
_cell_length_a        8.40
_cell_length_b        14.24
_cell_length_c        20.14
_cell_angle_alpha    90.00
_cell_angle_beta     90.00
_cell_angle_gamma    90.00


# setting 
_symmetry_space_group_name_H-M 'Imma'


loop_
_symmetry_equiv_pos_as_xyz
'x,y,z'
'x,-y,-z'
'-x,y+1/2,-z'
'-x,-y+1/2,z'
'-x,-y,-z'
'-x,y,z'
'x,-y-1/2,z'
'x,y-1/2,-z'
'x+1/2,y+1/2,z+1/2'
'x+1/2,-y+1/2,-z+1/2'
'-x+1/2,y+1,-z+1/2'
'-x+1/2,-y+1,z+1/2'
'-x+1/2,-y+1/2,-z+1/2'
'-x+1/2,y+1/2,z+1/2'
'x+1/2,-y,z+1/2'
'x+1/2,y,-z+1/2'


loop_
_atom_site_label
_atom_site_type_symbol
_atom_site_fract_x
_atom_site_fract_y
_atom_site_fract_z
_atom_site_occupancy
_atom_site_U_iso_or_equiv
T1 Si 0.3187 -0.2500 -0.0098 1.0 0.0127
T2 Si 0.1838 -0.2500 0.1316 1.0 0.0127
T3 Si 0.3143 -0.0527 0.1774 1.0 0.0127
T4 Si 0.1830 -0.0664 -0.0601 1.0 0.0127
O1 O 0.5000 -0.2500 0.0172 1.0 0.0253
O2 O 0.0000 -0.2500 0.1536 1.0 0.0253
O3 O 0.5000 -0.0300 0.170 1.0 0.0253
O4 O 0.0000 -0.0965 -0.0518 1.0 0.0253
OI O 0.1965 -0.2500 0.0516 1.0 0.0253
OII O 0.2750 -0.1591 0.1595 1.0 0.0253
OIII O 0.2500 -0.0285 0.2500 1.0 0.0253
OiV O 0.2118 0.0143 0.1289 1.0 0.0253
OV O 0.2367 0.0000 0.0000 1.0 0.0253
OVI O 0.2936 -0.1588 -0.0560 1.0 0.0253




