data_Dodecasil_3C
_cell_length_a         19.402
_cell_length_b         19.402
_cell_length_c         19.402
_cell_angle_alpha     90
_cell_angle_beta      90
_cell_angle_gamma     90


# setting 2
_symmetry_space_group_name_H-M 'Fd-3'


loop_
_symmetry_equiv_pos_as_xyz
'x,y,z'
'z,x,y'
'y,z,x'
'-y+1/4,-z+1/4,x'
'z,-x+1/4,-y+1/4'
'-y+1/4,z,-x+1/4'
'-z+1/4,-x+1/4,y'
'-z+1/4,x,-y+1/4'
'y,-z+1/4,-x+1/4'
'x,-y+1/4,-z+1/4'
'-x+1/4,y,-z+1/4'
'-x+1/4,-y+1/4,z'
'-x,-y,-z'
'-z,-x,-y'
'-y,-z,-x'
'y-1/4,z-1/4,-x'
'-z,x-1/4,y-1/4'
'y-1/4,-z,x-1/4'
'z-1/4,x-1/4,-y'
'z-1/4,-x,y-1/4'
'-y,z-1/4,x-1/4'
'-x,y-1/4,z-1/4'
'x-1/4,-y,z-1/4'
'x-1/4,y-1/4,-z'
'x,y+1/2,z+1/2'
'z,x+1/2,y+1/2'
'y,z+1/2,x+1/2'
'-y+1/4,-z+3/4,x+1/2'
'z,-x+3/4,-y+3/4'
'-y+1/4,z+1/2,-x+3/4'
'-z+1/4,-x+3/4,y+1/2'
'-z+1/4,x+1/2,-y+3/4'
'y,-z+3/4,-x+3/4'
'x,-y+3/4,-z+3/4'
'-x+1/4,y+1/2,-z+3/4'
'-x+1/4,-y+3/4,z+1/2'
'-x,-y+1/2,-z+1/2'
'-z,-x+1/2,-y+1/2'
'-y,-z+1/2,-x+1/2'
'y-1/4,z+1/4,-x+1/2'
'-z,x+1/4,y+1/4'
'y-1/4,-z+1/2,x+1/4'
'z-1/4,x+1/4,-y+1/2'
'z-1/4,-x+1/2,y+1/4'
'-y,z+1/4,x+1/4'
'-x,y+1/4,z+1/4'
'x-1/4,-y+1/2,z+1/4'
'x-1/4,y+1/4,-z+1/2'
'x+1/2,y,z+1/2'
'z+1/2,x,y+1/2'
'y+1/2,z,x+1/2'
'-y+3/4,-z+1/4,x+1/2'
'z+1/2,-x+1/4,-y+3/4'
'-y+3/4,z,-x+3/4'
'-z+3/4,-x+1/4,y+1/2'
'-z+3/4,x,-y+3/4'
'y+1/2,-z+1/4,-x+3/4'
'x+1/2,-y+1/4,-z+3/4'
'-x+3/4,y,-z+3/4'
'-x+3/4,-y+1/4,z+1/2'
'-x+1/2,-y,-z+1/2'
'-z+1/2,-x,-y+1/2'
'-y+1/2,-z,-x+1/2'
'y+1/4,z-1/4,-x+1/2'
'-z+1/2,x-1/4,y+1/4'
'y+1/4,-z,x+1/4'
'z+1/4,x-1/4,-y+1/2'
'z+1/4,-x,y+1/4'
'-y+1/2,z-1/4,x+1/4'
'-x+1/2,y-1/4,z+1/4'
'x+1/4,-y,z+1/4'
'x+1/4,y-1/4,-z+1/2'
'x+1/2,y+1/2,z'
'z+1/2,x+1/2,y'
'y+1/2,z+1/2,x'
'-y+3/4,-z+3/4,x'
'z+1/2,-x+3/4,-y+1/4'
'-y+3/4,z+1/2,-x+1/4'
'-z+3/4,-x+3/4,y'
'-z+3/4,x+1/2,-y+1/4'
'y+1/2,-z+3/4,-x+1/4'
'x+1/2,-y+3/4,-z+1/4'
'-x+3/4,y+1/2,-z+1/4'
'-x+3/4,-y+3/4,z'
'-x+1/2,-y+1/2,-z'
'-z+1/2,-x+1/2,-y'
'-y+1/2,-z+1/2,-x'
'y+1/4,z+1/4,-x'
'-z+1/2,x+1/4,y-1/4'
'y+1/4,-z+1/2,x-1/4'
'z+1/4,x+1/4,-y'
'z+1/4,-x+1/2,y-1/4'
'-y+1/2,z+1/4,x-1/4'
'-x+1/2,y+1/4,z-1/4'
'x+1/4,-y+1/2,z-1/4'
'x+1/4,y+1/4,-z'


loop_
_atom_site_label
_atom_site_type_symbol
_atom_site_fract_x
_atom_site_fract_y
_atom_site_fract_z
_atom_site_occupancy
_atom_site_U_iso_or_equiv
SI1 Si 0.0676 0.0676 0.3700 1.0 0.0258
SI2 Si 0.2164 0.2164 0.2164 1.0 0.0194
SI3 Si 0.125 0.125 0.125 1.0 0.0180
O1 O 0.0932 0.4065 -0.0001 1.0 0.0629
O2 O 0.0433 0.2995 0.4505 1.0 0.0790
O3 O 0.125 0.3734 0.125 1.0 0.0543
O4 O 0.1704 0.1704 0.1704 1.0 0.1180
N1 N 0.0 0.0 0.0 1.0 0.2533
N2 N 0.625 0.625 0.625 1.0 0.2533




