data_Nabesite
_cell_length_a        9.748
_cell_length_b        10.133
_cell_length_c        11.954
_cell_angle_alpha    90.0
_cell_angle_beta     90.0
_cell_angle_gamma    90.0


# setting 
# _symmetry_space_group_name_H-M 'P212121'


loop_
_symmetry_equiv_pos_as_xyz
'x,y,z'
'x+1/2,-y+1/2,-z'
'-x,y+1/2,-z+1/2'
'-x+1/2,-y,z+1/2'


loop_
_atom_site_label
_atom_site_type_sumbol
_atom_site_fract_x
_atom_site_fract_y
_atom_site_fract_z
_atom_site_occupancy
_atom_site_U_iso_or_equiv
Na1 Na 0.02823 0.19660 0.81506 1.0 0.0287
Na2 Na 0.37372 0.25369 0.73922 1.0 0.0446
Be Be 0.24232 0.26224 0.25678 1.0 0.0084
Si1 Si 0.08393 0.35478 0.06419 1.0 0.0075
Si2 Si 0.39961 0.36283 0.44722 1.0 0.0076
Si3 Si 0.29128 0.14866 0.03408 1.0 0.0084
Si4 Si 0.20023 0.14856 0.47842 1.0 0.0077
O1 O 0.11930 0.34407 0.19374 1.0 0.0122
O2 O 0.12092 0.49694 0.01041 1.0 0.0171
O3 O -.07946 0.32732 0.04934 1.0 0.0143
O4 O 0.16731 0.24433 -.00928 1.0 0.0111
O5 O 0.34741 0.36353 0.32118 1.0 0.0120
O6 O 0.56197 0.32609 0.44915 1.0 0.0160
O7 O 0.31580 0.25353 0.52237 1.0 0.0113
O8 O 0.32791 0.17820 0.16101 1.0 0.0129
O9 O 0.24094 -.00340 0.01423 1.0 0.0137
O10 O 0.17608 0.15933 0.34733 1.0 0.0148
OW1 O2-(H2O) 0.22056 0.07549 0.76168 1.0 0.0276
OW2 O2-(H2O) 0.16099 0.37520 0.73814 1.0 0.0315
OW3 O2-(H2O) -.05881 0.02080 0.94934 1.0 0.0379
OW4 O2-(H2O) 0.47439 0.44438 0.80888 1.0 0.0394
H1 H 0.249 0.009 0.807 1.0 0.0660
H2 H 0.209 0.049 0.689 1.0 0.0670
H3 H 0.171 0.442 0.759 1.0 0.0450
H4 H 0.095 0.383 0.699 1.0 0.0589
H5 H -.077 0.029 1.0225 1.0 0.0470
H6 H 0.034 0.011 0.959 1.0 0.1020
H7 H 0.446 0.527 0.788 1.0 0.0740
H8 H 0.554 0.404 0.765 1.0 0.0750




