data_Scolecite
_cell_length_a         6.5222
_cell_length_b         18.9678
_cell_length_c         9.8398
_cell_angle_alpha     90
_cell_angle_beta      109.972
_cell_angle_gamma     90


# setting 
# _symmetry_space_group_name_H-M 'C1c1'


loop_
_symmetry_equiv_pos_as_xyz
'x,y,z'
'x,-y,z+1/2'
'x+1/2,y+1/2,z'
'x+1/2,-y+1/2,z+1/2'


loop_
_atom_site_label
_atom_site_type_sumbol
_atom_site_fract_x
_atom_site_fract_y
_atom_site_fract_z
_atom_site_occupancy
_atom_site_U_iso_or_equiv
CA1 Ca 0.16217 0.14321 0.05204 1.0 0.0096
SI1 Si 0.5 0.37057 0.0 1.0 0.0056
SI2 Si 0.22996 0.33185 0.20022 1.0 0.0054
SI3 Si 0.54002 0.08259 0.33102 1.0 0.0053
AL1 Al 0.93441 0.46209 0.09971 1.0 0.0057
AL2 Al 0.35577 0.21663 0.43387 1.0 0.0054
O1 O 0.5425 0.03146 0.4608 1.0 0.0108
O2 O 0.4471 0.04597 0.1174 1.0 0.0084
O3 O 0.3834 0.15127 0.3157 1.0 0.0098
O4 O 0.1153 0.19942 0.4684 1.0 0.0100
O5 O 0.3536 0.29954 0.3584 1.0 0.0080
O6 O 0.0863 0.27133 0.0907 1.0 0.0101
O7 O 0.4143 0.35860 0.1343 1.0 0.0115
O8 O 0.0764 0.39545 0.2150 1.0 0.0113
O9 O 0.7889 0.11007 0.3566 1.0 0.0104
O10 O 0.6603 0.43692 0.0339 1.0 0.0117
H2O1 O2-(H2O) 0.8906 0.0803 0.1082 1.0 0.0281
H2O2 O2-(H2O) 0.9080 0.3263 0.4407 1.0 0.0295
H2O3 O2-(H2O) 0.5787 0.4454 0.3742 1.0 0.0229




