data_Gonnardite
_cell_length_a         13.21
_cell_length_b         13.21
_cell_length_c         6.622
_cell_angle_alpha     90
_cell_angle_beta      90
_cell_angle_gamma     90


# setting 
_symmetry_space_group_name_H-M 'I-42d'


loop_
_symmetry_equiv_pos_as_xyz
'x,y,z'
'y,-x,-z'
'-y,x,-z'
'x+1/2,-y,-z+3/4'
'-x+1/2,y,-z+3/4'
'-x,-y,z'
'-y+1/2,-x,z+3/4'
'y+1/2,x,z+3/4'
'x+1/2,y+1/2,z+1/2'
'y+1/2,-x+1/2,-z+1/2'
'-y+1/2,x+1/2,-z+1/2'
'x+1,-y+1/2,-z+5/4'
'-x+1,y+1/2,-z+5/4'
'-x+1/2,-y+1/2,z+1/2'
'-y+1,-x+1/2,z+5/4'
'y+1,x+1/2,z+5/4'


loop_
_atom_site_label
_atom_site_type_symbol
_atom_site_fract_x
_atom_site_fract_y
_atom_site_fract_z
_atom_site_occupancy
_atom_site_U_iso_or_equiv
NA1+ Na1+ 0.3084 0.2500 0.1250 0.816 0.0298
CA2+ Ca2+ 0.3084 0.2500 0.1250 0.184 0.0298
SI Si 0.1332 0.0536 0.3789 0.292 0.0099
SI4+ Si4+ 0.1332 0.0536 0.3789 0.205 0.0099
SI Si 0.1332 0.0536 0.3789 0.292 0.0099
SI4+ Si4+ 0.1332 0.0536 0.3789 0.205 0.0099
AL Al 0.1332 0.0536 0.3789 0.238 0.0099
AL3+ Al3+ 0.1332 0.0536 0.3789 0.265 0.0099
AL Al 0.1332 0.0536 0.3789 0.238 0.0099
AL3+ Al3+ 0.1332 0.0536 0.3789 0.265 0.0099
O O 0.4369 0.3674 0.0210 0.271 0.0208
O2- O2- 0.4369 0.3674 0.0210 0.729 0.0208
O O 0.4369 0.3674 0.0210 0.271 0.0208
O2- O2- 0.4369 0.3674 0.0210 0.729 0.0208
O O 0.4369 0.3674 0.0210 0.271 0.0208
O2- O2- 0.4369 0.3674 0.0210 0.729 0.0208
H2O1 O2-(H2O) 0.2500 0.3652 0.3750 1.0 0.0426
H2O2 O2-(H2O) 0.1280 0.2434 0.0545 0.25 0.0762
H H 0.2500 0.4272 0.3750 1.0 0.0014




