data_2-aminopentane_Nonasil
_cell_length_a         22.232
_cell_length_b         15.058
_cell_length_c         13.627
_cell_angle_alpha     90
_cell_angle_beta      90
_cell_angle_gamma     90


# setting 
_symmetry_space_group_name_H-M 'Fmmm'


loop_
_symmetry_equiv_pos_as_xyz
'x,y,z'
'x,-y,-z'
'-x,y,-z'
'-x,-y,z'
'-x,-y,-z'
'-x,y,z'
'x,-y,z'
'x,y,-z'
'x,y+1/2,z+1/2'
'x,-y+1/2,-z+1/2'
'-x,y+1/2,-z+1/2'
'-x,-y+1/2,z+1/2'
'-x,-y+1/2,-z+1/2'
'-x,y+1/2,z+1/2'
'x,-y+1/2,z+1/2'
'x,y+1/2,-z+1/2'
'x+1/2,y,z+1/2'
'x+1/2,-y,-z+1/2'
'-x+1/2,y,-z+1/2'
'-x+1/2,-y,z+1/2'
'-x+1/2,-y,-z+1/2'
'-x+1/2,y,z+1/2'
'x+1/2,-y,z+1/2'
'x+1/2,y,-z+1/2'
'x+1/2,y+1/2,z'
'x+1/2,-y+1/2,-z'
'-x+1/2,y+1/2,-z'
'-x+1/2,-y+1/2,z'
'-x+1/2,-y+1/2,-z'
'-x+1/2,y+1/2,z'
'x+1/2,-y+1/2,z'
'x+1/2,y+1/2,-z'


loop_
_atom_site_label
_atom_site_type_symbol
_atom_site_fract_x
_atom_site_fract_y
_atom_site_fract_z
_atom_site_occupancy
_atom_site_U_iso_or_equiv
SI1 Si 0.3745 0.1635 0.3103 1.0 0.0210
SI2 Si 0.2798 0.5000 0.5000 1.0 0.0260
SI3 Si 0.2950 0.3270 0.0000 1.0 0.0360
SI4 Si 0.5000 0.1051 0.6156 1.0 0.0041
SI5 Si 0.3173 0.5000 0.2831 1.0 0.0290
O1 O 0.3356 0.3282 0.9056 1.0 0.0650
O2 O 0.4427 0.1462 0.3374 1.0 0.0250
O3 O 0.3520 0.4050 0.2525 1.0 0.1280
O4 O 0.2702 0.4329 0.0000 1.0 0.1620
O5 O 0.3197 0.5000 0.5937 1.0 0.0431
O6 O 0.3667 0.2500 0.2500 1.0 0.2170
O7 O 0.0000 0.0000 0.1392 1.0 0.0260
O8 O 0.5000 0.1155 0.5000 1.0 0.0049
O9 O 0.2500 0.0000 0.2500 1.0 0.0231
O10 O 0.2500 0.2500 0.0000 1.0 0.1260
C1 C 0.5000 0.4489 0.5700 1.0 0.2420
C2 C 0.4659 0.3547 0.5000 1.0 0.1280
C3 C 0.0000 0.0000 0.5000 1.0 0.4100




