data_Lithium_hydrogen_oxonitridophosphate_chloride
_cell_length_a        4.753
_cell_length_b        14.208
_cell_length_c        8.203
_cell_angle_alpha    90.0
_cell_angle_beta     90.0
_cell_angle_gamma    90.0


# setting 
_symmetry_space_group_name_H-M 'Pna21'


loop_
_symmetry_equiv_pos_as_xyz
'x,y,z'
'-x,-y,z+1/2'
'-x+1/2,y+1/2,z+1/2'
'x+1/2,-y+1/2,z'


loop_
_atom_site_label
_atom_site_type_symbol
_atom_site_fract_x
_atom_site_fract_y
_atom_site_fract_z
_atom_site_occupancy
_atom_site_U_iso_or_equiv
P1 P 0.8233 0.4357 0.1421 1 0.0115
P2 P 0.6749 0.5033 -0.1774 1 0.0113
P3 P 0.7917 0.3092 -0.123 1 0.0128
N1 N 0.7703 0.5199 0.0041 1 0.0160
N2 N 0.707 0.3971 -0.2369 1 0.0141
N3 N 0.7442 0.3325 0.0672 1 0.0130
N4 N 0.35 0.5398 -0.1923 1 0.0130
N5 N 0.6184 0.2153 -0.1677 1 0.0120
N6 N 0.1515 0.4292 0.1987 1 0.0141
Cl1 Cl 0.989 0.251 0.441 0.64 0.1583
Li1 Li 0.833 0.145 0.623 0.54 0.0331
Li2 Li 0.181 0.602 0.008 0.5 0.0331
Li3 Li 0.862 0.203 0.2 0.43 0.0331




