data_Oxonitridophosphate-2
_cell_length_a        26.8541
_cell_length_b        26.8541
_cell_length_c        26.8541
_cell_angle_alpha    90.0
_cell_angle_beta     90.00
_cell_angle_gamma    90.00


# setting 
# _symmetry_space_group_name_H-M 'Fm-3c'


loop_
_symmetry_equiv_pos_as_xyz
'x,y,z'
'x+1/2,-z,y'
'x+1/2,z,-y'
'z+1/2,y,-x'
'-z+1/2,y,x'
'-y+1/2,x,z'
'y+1/2,-x,z'
'z,x,y'
'y,z,x'
'-y,-z,x'
'z,-x,-y'
'-y,z,-x'
'-z,-x,y'
'-z,x,-y'
'y,-z,-x'
'x,-y,-z'
'-x,y,-z'
'-x,-y,z'
'y+1/2,x,-z'
'-y+1/2,-x,-z'
'z+1/2,-y,x'
'-z+1/2,-y,-x'
'-x+1/2,z,y'
'-x+1/2,-z,-y'
'-x,-y,-z'
'-x-1/2,z,-y'
'-x-1/2,-z,y'
'-z-1/2,-y,x'
'z-1/2,-y,-x'
'y-1/2,-x,-z'
'-y-1/2,x,-z'
'-z,-x,-y'
'-y,-z,-x'
'y,z,-x'
'-z,x,y'
'y,-z,x'
'z,x,-y'
'z,-x,y'
'-y,z,x'
'-x,y,z'
'x,-y,z'
'x,y,-z'
'-y-1/2,-x,z'
'y-1/2,x,z'
'-z-1/2,y,-x'
'z-1/2,y,x'
'x-1/2,-z,-y'
'x-1/2,z,y'
'x,y+1/2,z+1/2'
'x+1/2,-z+1/2,y+1/2'
'x+1/2,z+1/2,-y+1/2'
'z+1/2,y+1/2,-x+1/2'
'-z+1/2,y+1/2,x+1/2'
'-y+1/2,x+1/2,z+1/2'
'y+1/2,-x+1/2,z+1/2'
'z,x+1/2,y+1/2'
'y,z+1/2,x+1/2'
'-y,-z+1/2,x+1/2'
'z,-x+1/2,-y+1/2'
'-y,z+1/2,-x+1/2'
'-z,-x+1/2,y+1/2'
'-z,x+1/2,-y+1/2'
'y,-z+1/2,-x+1/2'
'x,-y+1/2,-z+1/2'
'-x,y+1/2,-z+1/2'
'-x,-y+1/2,z+1/2'
'y+1/2,x+1/2,-z+1/2'
'-y+1/2,-x+1/2,-z+1/2'
'z+1/2,-y+1/2,x+1/2'
'-z+1/2,-y+1/2,-x+1/2'
'-x+1/2,z+1/2,y+1/2'
'-x+1/2,-z+1/2,-y+1/2'
'-x,-y+1/2,-z+1/2'
'-x-1/2,z+1/2,-y+1/2'
'-x-1/2,-z+1/2,y+1/2'
'-z-1/2,-y+1/2,x+1/2'
'z-1/2,-y+1/2,-x+1/2'
'y-1/2,-x+1/2,-z+1/2'
'-y-1/2,x+1/2,-z+1/2'
'-z,-x+1/2,-y+1/2'
'-y,-z+1/2,-x+1/2'
'y,z+1/2,-x+1/2'
'-z,x+1/2,y+1/2'
'y,-z+1/2,x+1/2'
'z,x+1/2,-y+1/2'
'z,-x+1/2,y+1/2'
'-y,z+1/2,x+1/2'
'-x,y+1/2,z+1/2'
'x,-y+1/2,z+1/2'
'x,y+1/2,-z+1/2'
'-y-1/2,-x+1/2,z+1/2'
'y-1/2,x+1/2,z+1/2'
'-z-1/2,y+1/2,-x+1/2'
'z-1/2,y+1/2,x+1/2'
'x-1/2,-z+1/2,-y+1/2'
'x-1/2,z+1/2,y+1/2'
'x+1/2,y,z+1/2'
'x+1,-z,y+1/2'
'x+1,z,-y+1/2'
'z+1,y,-x+1/2'
'-z+1,y,x+1/2'
'-y+1,x,z+1/2'
'y+1,-x,z+1/2'
'z+1/2,x,y+1/2'
'y+1/2,z,x+1/2'
'-y+1/2,-z,x+1/2'
'z+1/2,-x,-y+1/2'
'-y+1/2,z,-x+1/2'
'-z+1/2,-x,y+1/2'
'-z+1/2,x,-y+1/2'
'y+1/2,-z,-x+1/2'
'x+1/2,-y,-z+1/2'
'-x+1/2,y,-z+1/2'
'-x+1/2,-y,z+1/2'
'y+1,x,-z+1/2'
'-y+1,-x,-z+1/2'
'z+1,-y,x+1/2'
'-z+1,-y,-x+1/2'
'-x+1,z,y+1/2'
'-x+1,-z,-y+1/2'
'-x+1/2,-y,-z+1/2'
'-x,z,-y+1/2'
'-x,-z,y+1/2'
'-z,-y,x+1/2'
'z,-y,-x+1/2'
'y,-x,-z+1/2'
'-y,x,-z+1/2'
'-z+1/2,-x,-y+1/2'
'-y+1/2,-z,-x+1/2'
'y+1/2,z,-x+1/2'
'-z+1/2,x,y+1/2'
'y+1/2,-z,x+1/2'
'z+1/2,x,-y+1/2'
'z+1/2,-x,y+1/2'
'-y+1/2,z,x+1/2'
'-x+1/2,y,z+1/2'
'x+1/2,-y,z+1/2'
'x+1/2,y,-z+1/2'
'-y,-x,z+1/2'
'y,x,z+1/2'
'-z,y,-x+1/2'
'z,y,x+1/2'
'x,-z,-y+1/2'
'x,z,y+1/2'
'x+1/2,y+1/2,z'
'x+1,-z+1/2,y'
'x+1,z+1/2,-y'
'z+1,y+1/2,-x'
'-z+1,y+1/2,x'
'-y+1,x+1/2,z'
'y+1,-x+1/2,z'
'z+1/2,x+1/2,y'
'y+1/2,z+1/2,x'
'-y+1/2,-z+1/2,x'
'z+1/2,-x+1/2,-y'
'-y+1/2,z+1/2,-x'
'-z+1/2,-x+1/2,y'
'-z+1/2,x+1/2,-y'
'y+1/2,-z+1/2,-x'
'x+1/2,-y+1/2,-z'
'-x+1/2,y+1/2,-z'
'-x+1/2,-y+1/2,z'
'y+1,x+1/2,-z'
'-y+1,-x+1/2,-z'
'z+1,-y+1/2,x'
'-z+1,-y+1/2,-x'
'-x+1,z+1/2,y'
'-x+1,-z+1/2,-y'
'-x+1/2,-y+1/2,-z'
'-x,z+1/2,-y'
'-x,-z+1/2,y'
'-z,-y+1/2,x'
'z,-y+1/2,-x'
'y,-x+1/2,-z'
'-y,x+1/2,-z'
'-z+1/2,-x+1/2,-y'
'-y+1/2,-z+1/2,-x'
'y+1/2,z+1/2,-x'
'-z+1/2,x+1/2,y'
'y+1/2,-z+1/2,x'
'z+1/2,x+1/2,-y'
'z+1/2,-x+1/2,y'
'-y+1/2,z+1/2,x'
'-x+1/2,y+1/2,z'
'x+1/2,-y+1/2,z'
'x+1/2,y+1/2,-z'
'-y,-x+1/2,z'
'y,x+1/2,z'
'-z,y+1/2,-x'
'z,y+1/2,x'
'x,-z+1/2,-y'
'x,z+1/2,y'


loop_
_atom_site_label
_atom_site_type_sumbol
_atom_site_fract_x
_atom_site_fract_y
_atom_site_fract_z
_atom_site_occupancy
_atom_site_U_iso_or_equiv
Ba1 Ba 0.10548 0.25 0.25 1 0.0289
Ba2 Ba 0.00 0.14017 0.13339 1 0.0386
Ba3 Ba 0.00 0.00 0.00 1 0.0196
P1 P 0.62375 0.61824 0.69618 1 0.0073
P2 P 0.25 0.94411 0.94411 1 0.0229
Cl1 Cl 0.06886 0.06886 0.06886 1 0.0144
Cl2 Cl 0.29686 0.00 0.75929 0.378 0.0144
N1 N 0.00 0.93313 0.73366 0.854 0.0324
O1 O 0.00 0.93313 0.73366 0.146 0.0324
N2 N 0.33335 0.32914 0.40254 0.854 0.0324
O2 O 0.33335 0.32914 0.40254 0.146 0.0324
N3 N 0.25 0.85913 0.85913 0.854 0.0324
O3 O 0.25 0.85913 0.85913 0.146 0.0324
N4 N 0.58401 0.57118 0.69843 0.854 0.0324
O4 O 0.58401 0.57118 0.69843 0.146 0.0324




