data_Nu-6_2
_cell_length_a        17.2569
_cell_length_b        4.9881
_cell_length_c        13.8482
_cell_angle_alpha    90.0
_cell_angle_beta     106.091
_cell_angle_gamma    90.0


# setting 
# _symmetry_space_group_name_H-M 'P121/a1'


loop_
_symmetry_equiv_pos_as_xyz
'x,y,z'
'-x+1/2,y+1/2,-z'
'-x,-y,-z'
'x-1/2,-y-1/2,z'


loop_
_atom_site_label
_atom_site_type_sumbol
_atom_site_fract_x
_atom_site_fract_y
_atom_site_fract_z
_atom_site_occupancy
_atom_site_U_iso_or_equiv
SI1 Si 0.3286 0.2344 0.3038 1 0.0002
SI2 Si 0.5921 0.7965 0.2688 1 0.0002
SI3 Si 0.3093 0.6423 0.0109 1 0.0002
SI4 Si 0.3501 0.7290 -0.1906 1 0.0002
SI5 Si 0.4068 0.7245 0.2323 1 0.0002
SI6 Si 0.6973 0.9520 0.4901 1 0.0002
O1 O 0.3737 0.6247 0.1175 1 0.0002
O2 O 0.3852 0.4824 0.2984 1 0.0002
O3 O 0.6402 0.8547 0.3845 1 0.0002
O4 O 0.7220 0.2636 0.4952 1 0.0002
O5 O 0.3612 0.7092 -0.0688 1 0.0002
O6 O 0.5013 0.7259 0.2598 1 0.0002
O7 O 0.4167 0.9246 -0.2075 1 0.0002
O8 O 0.2481 0.8850 0.0176 1 0.0002
O9 O 0.3639 -0.0105 0.2527 1 0.0002
O10 O 0.3462 0.1404 0.4236 1 0.0002
O11 O 0.3639 0.4331 -0.2289 1 0.0002
O12 O 0.2392 0.3150 0.2504 1 0.0002




