data_OSB-2
_cell_length_a        13.7452
_cell_length_b        13.7452
_cell_length_c        30.654
_cell_angle_alpha    90.0
_cell_angle_beta     90.0
_cell_angle_gamma    90.0


# setting 
# _symmetry_space_group_name_H-M 'I4/mmm'


loop_
_symmetry_equiv_pos_as_xyz
'x,y,z'
'-y,x,z'
'y,-x,z'
'x,-y,-z'
'-x,y,-z'
'-x,-y,z'
'y,x,-z'
'-y,-x,-z'
'-x,-y,-z'
'y,-x,-z'
'-y,x,-z'
'-x,y,z'
'x,-y,z'
'x,y,-z'
'-y,-x,z'
'y,x,z'
'x+1/2,y+1/2,z+1/2'
'-y+1/2,x+1/2,z+1/2'
'y+1/2,-x+1/2,z+1/2'
'x+1/2,-y+1/2,-z+1/2'
'-x+1/2,y+1/2,-z+1/2'
'-x+1/2,-y+1/2,z+1/2'
'y+1/2,x+1/2,-z+1/2'
'-y+1/2,-x+1/2,-z+1/2'
'-x+1/2,-y+1/2,-z+1/2'
'y+1/2,-x+1/2,-z+1/2'
'-y+1/2,x+1/2,-z+1/2'
'-x+1/2,y+1/2,z+1/2'
'x+1/2,-y+1/2,z+1/2'
'x+1/2,y+1/2,-z+1/2'
'-y+1/2,-x+1/2,z+1/2'
'y+1/2,x+1/2,z+1/2'


loop_
_atom_site_label
_atom_site_type_sumbol
_atom_site_fract_x
_atom_site_fract_y
_atom_site_fract_z
_atom_site_occupancy
_atom_site_U_iso_or_equiv
Si1 Si 0.5 0.0 0.25 0.41 0.0470
Be1 Be 0.5 0.0 0.25 0.59 0.0470
Si2 Si 0.1133 0.1133 0.0 1.0 0.0489
Si3 Si 0.3942 0.0 0.3322 0.692 0.0439
Be3 Be 0.3942 0.0 0.3322 0.308 0.0439
Si4 Si 0.2442 0.2442 0.04727 0.562 0.0499
Be4 Be 0.2442 0.2442 0.04727 0.438 0.0499
Si5 Si 0.25592 0.10666 0.38612 0.683 0.0450
Be5 Be 0.25592 0.10666 0.38612 0.317 0.0450
O1 O 0.5 0.0 0.3541 1.0 0.0899
O2 O 0.1325 0.0 0.0 1.0 0.0950
O3 O 0.1609 0.1609 0.0425 1.0 0.0819
O4 O 0.3358 0.0948 0.3481 1.0 0.0809
O5 O 0.4041 0.0 0.28027 1.0 0.0750
O6 O 0.2222 0.0 0.4026 1.0 0.0730
O7 O 0.3346 0.1993 0.07377 1.0 0.0760
O8 O 0.162 0.162 0.3675 1.0 0.0789
O9 O 0.2798 0.2798 0.0 1.0 0.0779
K1 K 0.0 0.0 0.3914 0.84 0.0979
K2 K 0.2552 0.0 0.5 0.9776 0.1431
K3 K 0.3151 0.0 0.0798 0.6648 0.1469
K4 K 0.293 -0.141 0.2276 0.2334 0.3394
K5 K 0.112 0.112 0.1232 0.415 0.9094
H2O1 O2-(H2O) -0.5 -0.03 0.5 0.59 0.3888
H2O2 O2-(H2O) 0.0 0.0 0.5 1.08 0.2090
H2O3 O2-(H2O) 0.061 0.061 0.4773 0.254 0.2394
H2O4 O2-(H2O) -0.5 -0.106 0.5 1.05 0.5193
H2O5 O2-(H2O) -0.538 0.0 0.557 0.139 0.2888
H2O6 O2-(H2O) 0.138 0.138 0.2803 1.08 0.4889
H2O7 O2-(H2O) 0.0 0.226 0.2441 0.51 0.3698
H2O8 O2-(H2O) 0.131 0.226 0.1822 0.54 0.6295
H2O11 O2-(H2O) 0.088 0.088 0.3043 0.254 0.4395
H2O12 O2-(H2O) 0.257 0.0 0.1015 0.5 0.1249
H2O13 O2-(H2O) 0.0 0.0 0.362 0.35 0.1199
H2O14 O2-(H2O) 0.219 0.405 0.266 0.255 0.4293




