data_COK-14
_cell_length_a        24.1319
_cell_length_b        13.7918
_cell_length_c        12.2977
_cell_angle_alpha    90.00
_cell_angle_beta     109.60
_cell_angle_gamma    90.00


# setting 
_symmetry_space_group_name_H-M 'C12/m1'


loop_
_symmetry_equiv_pos_as_xyz
'x,y,z'
'-x,y,-z'
'-x,-y,-z'
'x,-y,z'
'x+1/2,y+1/2,z'
'-x+1/2,y+1/2,-z'
'-x+1/2,-y+1/2,-z'
'x+1/2,-y+1/2,z'


loop_
_atom_site_label
_atom_site_type_symbol
_atom_site_fract_x
_atom_site_fract_y
_atom_site_fract_z
_atom_site_occupancy
_atom_site_U_iso_or_equiv
Si3 Si 0.3016 0.7914 0.2446 1.000 0.0100
Si4 Si 0.3131 0.7914 0.5034 1.000 0.0930
Si5 Si 0.3252 0.7955 0.8730 1.000 0.0270
Si6 Si 0.3707 0.6846 0.1016 1.000 0.0470
Si7 Si 0.3840 0.7052 0.7340 1.000 0.0260
Si8 Si 0.2694 0.0000 0.8014 1.000 0.0660
Si9 Si 0.2208 0.5000 0.8210 1.000 0.0280
Si10 Si 0.3187 0.5000 0.6964 1.000 0.0049
Si11 Si 0.2222 0.5000 0.4547 1.000 0.0041
Si12 Si 0.2990 0.5000 0.0577 1.000 0.0360
Si13 Si 0.00003 0.8868 0.1250 1.000 0.0811
O1 O 0.3174 0.9033 0.2284 1.000 0.0420
O2 O 0.3399 0.7215 0.1924 1.000 0.0900
O3 O 0.3216 0.7695 0.3811 1.000 0.0320
O4 O 0.2319 0.7702 0.1901 1.000 0.0380
O5 O 0.3147 0.9064 0.5290 1.000 0.0880
O6 O 0.2500 0.7500 0.5000 1.000 0.0610
O7 O 0.3651 0.7327 0.5984 1.000 0.0190
O8 O 0.3616 0.7687 0.0054 1.000 0.0580
O9 O 0.3052 0.9075 0.8716 1.000 0.0690
O10 O 0.3695 0.7931 0.7999 1.000 0.1270
O11 O 0.3333 0.5933 0.0319 1.000 0.0529
O13 O 0.3577 0.5974 0.7352 1.000 0.0460
O14 O 0.2047 0.0000 0.8134 1.000 0.0400
O15 O 0.2667 0.0000 0.6680 1.000 0.0780
O16 O 0.2347 0.5000 0.9591 1.000 0.0210
O17 O 0.2756 0.5000 0.7732 1.000 0.0900
O18 O 0.2850 0.5000 0.5584 1.000 0.0510
O19 O 0.0456 0.8136 0.2152 1.000 0.0130
Oa O 0.9377 0.8535 0.1340 1.000 0.0049
Ob O 0.0000 0.1270 0.0000 1.000 0.0890
Oc O 0.0103 0.0000 0.1618 1.000 0.0280
O36 O -0.0303 -0.2460 0.5940 0.080 0.0250
O41 O -0.0750 0.5000 0.5830 0.163 0.0250




