data_UiO-6_Calcined
_cell_length_a        18.3549
_cell_length_b        18.3206
_cell_length_c        5.0530
_cell_angle_alpha    90.0
_cell_angle_beta     90.0
_cell_angle_gamma    90.0


# setting 
_symmetry_space_group_name_H-M 'Imm2'


loop_
_symmetry_equiv_pos_as_xyz
'x,y,z'
'-x,-y,z'
'-x,y,z'
'x,-y,z'
'x+1/2,y+1/2,z+1/2'
'-x+1/2,-y+1/2,z+1/2'
'-x+1/2,y+1/2,z+1/2'
'x+1/2,-y+1/2,z+1/2'


loop_
_atom_site_label
_atom_site_type_symbol
_atom_site_fract_x
_atom_site_fract_y
_atom_site_fract_z
_atom_site_occupancy
_atom_site_U_iso_or_equiv
Al1 Al 0.5 0.2867 0.0 1.0 0.0000
Al2 Al 0.6179 0.5 0.604 1.0 0.0000
Al3 Al 0.7205 0.1659 0.528 1.0 0.0000
P1 P 0.5 0.3795 0.527 1.0 0.0000
P2 P 0.7221 0.5 0.081 1.0 0.0000
P3 P 0.3554 0.7691 0.068 1.0 0.0000
O1 O 0.5 0.3073 -0.3398 1.0 0.0000
O2 O 0.5 0.3556 0.2413 1.0 0.0000
O3 O 0.4353 0.2154 0.0247 1.0 0.0000
O4 O 0.6491 0.5 0.9332 1.0 0.0000
O5 O 0.6738 0.5 0.3272 1.0 0.0000
O6 O 0.5724 0.4185 0.5300 1.0 0.0000
O7 O 0.6709 0.1950 0.8099 1.0 0.0000
O8 O 0.6977 0.1764 0.1912 1.0 0.0000
O9 O 0.8081 0.2030 0.5110 1.0 0.0000
O10 O 0.7376 0.0718 0.5281 1.0 0.0000




