data_UiO-28
_cell_length_a        9.2769
_cell_length_b        14.7984
_cell_length_c        14.6106
_cell_angle_alpha    90.0
_cell_angle_beta     90.0
_cell_angle_gamma    90.0


# setting 
# _symmetry_space_group_name_H-M 'Pbcm'


loop_
_symmetry_equiv_pos_as_xyz
'x,y,z'
'x,-y+1/2,-z'
'-x,y+1/2,-z+1/2'
'-x,-y,z+1/2'
'-x,-y,-z'
'-x,y-1/2,z'
'x,-y-1/2,z-1/2'
'x,y,-z-1/2'


loop_
_atom_site_label
_atom_site_type_sumbol
_atom_site_fract_x
_atom_site_fract_y
_atom_site_fract_z
_atom_site_occupancy
_atom_site_U_iso_or_equiv
P1 P 0.8765 0.3430 0.2500 1 0.0006
P2 P 0.6820 -0.0279 0.2500 1 0.0005
P3 P 0.1482 0.13343 0.1031 1 0.0006
Al1 Al 0.1426 0.3470 0.1150 0.82 0.0006
Mg1 Mg 0.1426 0.3470 0.1150 0.18 0.0006
Al2 Al 0.9015 0.1356 0.2500 1 0.0006
Al3 Al 0.3323 0.0204 0.2500 0.30 0.0005
Mg3 Mg 0.3323 0.0204 0.2500 0.70 0.0005
O1 O 0.8256 0.2444 0.2500 1 0.0007
O2 O 0.7471 0.4018 0.2500 1 0.0009
O3 O 0.9667 0.3592 0.1638 1 0.0009
O4 O 0.7559 0.0616 0.2500 1 0.0012
O5 O 0.5265 -0.0138 0.2500 1 0.0012
O6 O 0.7279 -0.0783 0.3337 1 0.0012
O7 O 0.2562 0.0668 0.1397 1 0.0011
O8 O 0.1270 0.1149 0.0007 1 0.0010
O9 O 0.0026 0.1206 0.1490 1 0.0009
O10 O 0.1983 0.2308 0.1167 1 0.0008
OW1 O 0.4385 0.1583 0.2500 0.48 0.0017
OW2 O 0.5019 0.2552 0.2500 0.53 0.0044
N1 N 0.2130 -0.084 0.0054 1 0.0011
N2 N 0.6248 0.2425 0.0481 0.50 0.0013
C1 C 0.3689 -0.0966 -0.0138 1 0.0017
C2 C 0.4356 -0.1743 0.4729 1 0.0017




