data_IPC-4
_cell_length_a        20.114
_cell_length_b        13.956
_cell_length_c        12.351
_cell_angle_alpha    90.00
_cell_angle_beta     114.80
_cell_angle_gamma    90.0


# setting 
_symmetry_space_group_name_H-M 'C1m1'


loop_
_symmetry_equiv_pos_as_xyz
'x,y,z'
'x,-y,z'
'x+1/2,y+1/2,z'
'x+1/2,-y+1/2,z'


loop_
_atom_site_label
_atom_site_type_symbol
_atom_site_fract_x
_atom_site_fract_y
_atom_site_fract_z
_atom_site_occupancy
_atom_site_U_iso_or_equiv
Si1 Si 0.4804 0.8046 0.3859 1.0 0.0410
Si2 Si 0.0761 0.1988 0.8576 1.0 0.0410
Si3 Si 0.8481 0.7980 0.8542 1.0 0.0410
Si4 Si 0.8406 0.8001 0.5996 1.0 0.0410
Si5 Si 0.8265 0.7945 0.2418 1.0 0.0410
Si6 Si 0.7599 0.7042 0.9811 1.0 0.0410
Si7 Si 0.7471 0.6928 0.3717 1.0 0.0410
Si8 Si 0.4789 0.8073 0.6312 1.0 0.0410
Si9 Si 0.5012 0.7950 0.0076 1.0 0.0410
Si10 Si 0.5650 0.3004 0.2579 1.0 0.0410
Si11 Si 0.4523 0.0 0.9413 1.0 0.0410
Si12 Si 0.8795 0.0 0.3199 1.0 0.0410
Si13 Si 0.3978 0.5 0.9357 1.0 0.0410
Si14 Si 0.4988 0.5 0.8139 1.0 0.0410
Si15 Si 0.3651 0.5 0.5609 1.0 0.0410
Si16 Si 0.4826 0.5 0.2031 1.0 0.0410
Si17 Si 0.9326 0.5 0.3243 1.0 0.0410
Si18 Si 0.8275 0.5 0.4330 1.0 0.0410
Si19 Si 0.9153 0.5 0.6768 1.0 0.0410
Si20 Si 0.8365 0.5 0.0556 1.0 0.0410
O1 O 0.4812 0.9077 0.3316 1.0 0.0470
O2 O 0.5499 0.7660 0.7443 1.0 0.0470
O3 O 0.4218 0.7513 0.9485 1.0 0.0470
O4 O 0.4168 0.7278 0.6008 1.0 0.0470
O5 O 0.0485 0.0930 0.8259 1.0 0.0470
O6 O 0.0379 0.2377 0.3571 1.0 0.0470
O7 O 0.0374 0.2723 0.1489 1.0 0.0470
O8 O 1.0021 0.4063 -0.0174 1.0 0.0470
O9 O 0.0313 0.0943 0.2145 1.0 0.0470
O10 O 0.0496 0.2401 0.9522 1.0 0.0470
O11 O 0.9574 0.4064 0.6662 1.0 0.0470
O12 O 1.0016 0.3150 0.5226 1.0 0.0470
O13 O 0.8498 0.9082 0.8763 1.0 0.0470
O14 O 0.7805 0.5923 0.3652 1.0 0.0470
O15 O 0.7831 0.7507 0.8831 1.0 0.0470
O16 O 0.7935 0.7612 0.1033 1.0 0.0470
O17 O 0.6687 0.7024 0.9246 1.0 0.0470
O18 O 0.6555 0.6913 0.3166 1.0 0.0470
O19 O 0.8361 0.9071 0.2511 1.0 0.0470
O20 O 0.7872 0.5943 0.0047 1.0 0.0470
O21 O 0.7676 0.7677 0.2932 1.0 0.0470
O22 O 0.8183 0.9067 0.5565 1.0 0.0470
O23 O 0.8393 0.7784 0.7246 1.0 0.0470
O24 O 0.7792 0.7291 0.5055 1.0 0.0470
O25 O 0.9006 0.7406 0.3178 1.0 0.0470
O26 O 0.9159 0.0 0.0751 1.0 0.0470
O27 O 0.9557 0.0 0.3078 1.0 0.0470
O28 O 0.4705 0.5 0.9158 1.0 0.0470
O29 O 0.4341 0.5 0.6858 1.0 0.0470
O30 O 0.9074 0.5 0.8003 1.0 0.0470
O31 O 0.8661 0.5 0.1955 1.0 0.0470
O32 O 0.8992 0.5 1.0086 1.0 0.0470
O33 O 0.9043 0.5 0.4260 1.0 0.0470
O34 O 0.8366 0.5 0.5673 1.0 0.0470
O35 O 0.8904 0.0 0.4544 1.0 0.0470




