data_IST-1
_cell_length_a        9.6152
_cell_length_b        8.6702
_cell_length_c        16.2196
_cell_angle_alpha    90.0
_cell_angle_beta     90.0
_cell_angle_gamma    90.0


# setting 
# _symmetry_space_group_name_H-M 'Pca21'


loop_
_symmetry_equiv_pos_as_xyz
'x,y,z'
'-x,-y,z+1/2'
'-x+1/2,y,z+1/2'
'x+1/2,-y,z'


loop_
_atom_site_label
_atom_site_type_sumbol
_atom_site_fract_x
_atom_site_fract_y
_atom_site_fract_z
_atom_site_occupancy
_atom_site_U_iso_or_equiv
Al1 Al 0.195 0.8346 0.3921 1 0.0054
Al2 Al 0.0171 0.6502 0.104 1 0.0054
Al3 Al 0.178 0.4521 0.3614 1 0.0054
P1 P 0.038 0.3284 0.7909 1 0.0054
P2 P 0.1877 0.5844 0.5345 1 0.0054
P3 P 0.0259 0.1513 0.4455 1 0.0054
O1 O 0.3738 0.896 0.4306 1 0.0075
O2 O 0.147 0.732 0.4927 1 0.0075
O3 O 0.0188 0.7988 0.3478 1 0.0075
O4 O 0.1226 0.0127 0.4409 1 0.0075
O5 O 0.2011 0.3396 0.8031 1 0.0075
O6 O 0.974 0.4831 0.807 1 0.0075
O7 O 0.0198 0.278 0.7014 1 0.0075
O8 O -0.0371 0.789 0.0367 1 0.0075
O9 O 0.1931 0.6098 0.0977 1 0.0075
O10 O 0.94 0.4761 0.0856 1 0.0075
O11 O 0.0676 0.276 0.3868 1 0.0075
O12 O 0.2282 0.4627 0.4698 1 0.0075
O13 O 0.2607 0.6465 0.3459 1.125 0.0075
C1 C 0.1528 0.9036 0.7281 1.5 0.0500
N1 N 0.2603 0.9621 0.7855 1.29 0.0500
C2 C 0.1442 0.1472 0.1047 1.5 0.0500
N2 N 0.1317 0.1829 0.0146 1.43 0.0500




