data_PUK-16
_cell_length_a        19.0592
_cell_length_b        19.0592
_cell_length_c        11.6968
_cell_angle_alpha    90.00
_cell_angle_beta     90.00
_cell_angle_gamma    90.00


# setting 
# _symmetry_space_group_name_H-M 'P42/mnm'


loop_
_symmetry_equiv_pos_as_xyz
'x,y,z'
'-y+1/2,x+1/2,z+1/2'
'y+1/2,-x+1/2,z+1/2'
'x+1/2,-y+1/2,-z+1/2'
'-x+1/2,y+1/2,-z+1/2'
'-x,-y,z'
'y,x,-z'
'-y,-x,-z'
'-x,-y,-z'
'y-1/2,-x-1/2,-z-1/2'
'-y-1/2,x-1/2,-z-1/2'
'-x-1/2,y-1/2,z-1/2'
'x-1/2,-y-1/2,z-1/2'
'x,y,-z'
'-y,-x,z'
'y,x,z'


loop_
_atom_site_label
_atom_site_type_sumbol
_atom_site_fract_x
_atom_site_fract_y
_atom_site_fract_z
_atom_site_occupancy
_atom_site_U_iso_or_equiv
Si1 Si 0.0584 0.0584 0.1316 0.944 0.0337
Ge1 Ge 0.0584 0.0584 0.1316 0.056 0.0337
Si2 Si 0.1983 0.0162 0.2655 0.823 0.0337
Ge2 Ge 0.1983 0.0162 0.2655 0.177 0.0337
Si3 Si 0.1174 0.0003 0.5 0.854 0.0337
Ge3 Ge 0.1174 0.0003 0.5 0.146 0.0337
Si4 Si 0.2638 0.1464 0.3708 0.452 0.0337
Ge4 Ge 0.2638 0.1464 0.3708 0.548 0.0337
Si5 Si 0.3782 0.2633 0.3655 0.193 0.0337
Ge5 Ge 0.3782 0.2633 0.3655 0.807 0.0337
O1 O 0 0 0.1511 1 0.0363
O2 O 0.0743 0.0743 0 1 0.0363
O3 O 0.1316 0.0334 0.1856 1 0.0363
O4 O 0.2446 -0.0494 0.2203 1 0.0363
O5 O 0.1688 -0.0047 0.3901 1 0.0363
O6 O 0.0679 -0.0679 0.5 1 0.0363
O7 O 0.0718 0.0718 0.5 1 0.0363
O8 O 0.2546 0.0797 0.2780 1 0.0363
O9 O 0.1848 0.1848 0.3750 1 0.0363
O10 O 0.2843 0.1137 0.5 1 0.0363
O11 O 0.3224 0.2009 0.3133 1 0.0363
O12 O 0.3468 0.3468 0.3496 1 0.0363
O13 O 0.4064 0.2429 0.5 1 0.0363
F F 0.2612 0.2612 0.5 1 0.2533
C1 C 0.6118 -0.1052 0.0591 0.5 0.2528
C2 C 0.5972 -0.0326 0.0640 0.583 0.2528
C3 C 0.5348 -0.0089 0.1176 0.583 0.2528
C4 C 0.5020 -0.1285 0.1608 0.583 0.2528
C5 C 0.5640 -0.1535 0.1078 0.583 0.2528
C6 C 0.6949 -0.2070 0.0069 0.75 0.2528
C7 C 0.7298 -0.0792 -0.0397 0.75 0.2528
N1 N 0.4882 -0.0569 0.1651 0.5 0.2528
N2 N 0.6772 -0.1308 0.0033 0.5 0.2528




