data_PST-6
_cell_length_a        38.2793
_cell_length_b        22.4638
_cell_length_c        8.36197
_cell_angle_alpha    90.00
_cell_angle_beta     90.00
_cell_angle_gamma    90.00


# setting 
_symmetry_space_group_name_H-M 'Pba2'


loop_
_symmetry_equiv_pos_as_xyz
'x,y,z'
'-x,-y,z'
'-x+1/2,y+1/2,z'
'x+1/2,-y+1/2,z'


loop_
_atom_site_label
_atom_site_type_symbol
_atom_site_fract_x
_atom_site_fract_y
_atom_site_fract_z
_atom_site_occupancy
_atom_site_U_iso_or_equiv
Al1 Al 0.0460 0.6134 0.1414 1.0000 0.0538
Al2 Al 0.4527 0.6164 0.6125 1.0000 0.0538
Al3 Al 0.1516 0.5570 0.1280 1.0000 0.0538
Al4 Al 0.3538 0.5518 0.6142 1.0000 0.0538
Al5 Al 0.9870 0.6933 0.6305 1.0000 0.0538
Al6 Al 0.3831 0.6656 0.1167 1.0000 0.0538
Al7 Al 0.2130 0.8564 0.6255 1.0000 0.0538
Al8 Al 0.2891 0.4807 0.1163 1.0000 0.0538
Al9 Al 0.5146 0.6780 0.1275 1.0000 0.0538
Al10 Al 0.3577 0.2948 0.1236 1.0000 0.0538
Al11 Al 0.3560 0.7987 0.6283 1.0000 0.0538
Al12 Al 0.5808 0.6269 0.6279 1.0000 0.0538
Al13 Al 0.2887 0.8543 0.1310 1.0000 0.0538
Al14 Al 0.1146 0.6745 0.6231 1.0000 0.0538
Al15 Al 0.2161 0.4880 0.6179 1.0000 0.0538
Al16 Al 0.9187 0.6377 0.1291 1.0000 0.0538
Al17 Al 0.0837 0.4991 0.6269 1.0000 0.0538
Al18 Al 0.4170 0.5005 0.1126 1.0000 0.0538
P1 P 0.3502 0.5470 0.2446 1.0000 0.0538
P2 P 0.0493 0.6164 0.7664 1.0000 0.0538
P3 P 0.1444 0.2924 0.2448 1.0000 0.0538
P4 P 0.4529 0.6124 0.2432 1.0000 0.0538
P5 P 0.1535 0.5616 0.7477 1.0000 0.0538
P6 P 0.3566 0.2975 0.7484 1.0000 0.0538
P7 P 0.0815 0.8751 0.2522 1.0000 0.0538
P8 P 0.0808 0.4939 0.2457 1.0000 0.0538
P9 P 0.4196 0.8693 0.7443 1.0000 0.0538
P10 P 0.5144 0.6848 0.7521 1.0000 0.0538
P11 P 0.2131 0.8481 0.2435 1.0000 0.0538
P12 P 0.2150 0.4807 0.2594 1.0000 0.0538
P13 P 0.2902 0.8613 0.7517 1.0000 0.0538
P14 P 0.9868 0.7008 0.2570 1.0000 0.0538
P15 P 0.4208 0.5012 0.7554 1.0000 0.0538
P16 P 0.2918 0.4871 0.7487 1.0000 0.0538
P17 P 0.1164 0.6691 0.2469 1.0000 0.0538
P18 P 0.3821 0.6708 0.7371 1.0000 0.0538
O1 O 0.1616 0.5583 0.9265 1.0000 0.0652
O2 O 0.1244 0.5180 0.7066 1.0000 0.0652
O3 O 0.1439 0.6239 0.6997 1.0000 0.0652
O4 O 0.0755 0.6656 0.7220 1.0000 0.0652
O5 O 0.0563 0.5590 0.6671 1.0000 0.0652
O6 O 0.0704 0.4336 0.7116 1.0000 0.0652
O7 O 0.1180 0.3569 0.6951 1.0000 0.0652
O8 O 0.1413 0.2925 0.4247 1.0000 0.0652
O9 O 0.2306 0.4909 0.4241 1.0000 0.0652
O10 O 0.2445 0.4932 0.1333 1.0000 0.0652
O11 O 0.3117 0.5339 0.2223 1.0000 0.0652
O12 O 0.3724 0.5109 0.1273 1.0000 0.0652
O13 O 0.4381 0.5497 0.2440 1.0000 0.0652
O14 O 0.4265 0.6540 0.1607 1.0000 0.0652
O15 O 0.3579 0.6131 0.2174 1.0000 0.0652
O16 O 0.4881 0.6152 0.1579 1.0000 0.0652
O17 O 0.5528 0.6715 0.2363 1.0000 0.0652
O18 O 0.5871 0.6114 0.4282 1.0000 0.0652
O19 O 0.4578 0.6323 0.4156 1.0000 0.0652
O20 O 0.4916 0.6301 0.7134 1.0000 0.0652
O21 O 0.5482 0.6797 0.6512 1.0000 0.0652
O22 O 0.5246 0.6824 0.9282 1.0000 0.0652
O23 O 0.3025 0.4806 0.9215 1.0000 0.0652
O24 O 0.2525 0.5019 0.7417 1.0000 0.0652
O25 O 0.1861 0.5419 0.6533 1.0000 0.0652
O26 O 0.1810 0.8122 0.7048 1.0000 0.0652
O27 O 0.3604 0.5313 0.4168 1.0000 0.0652
O28 O 0.3113 0.5372 0.6662 1.0000 0.0652
O29 O 0.3817 0.5118 0.7348 1.0000 0.0652
O30 O 0.4406 0.5434 0.6394 1.0000 0.0652
O31 O 0.4207 0.6632 0.6943 1.0000 0.0652
O32 O 0.3613 0.6271 0.6345 1.0000 0.0652
O33 O 0.3767 0.6548 0.9138 1.0000 0.0652
O34 O 0.1841 0.8076 0.1860 1.0000 0.0652
O35 O 0.2970 0.8694 0.9309 1.0000 0.0652
O36 O 0.2520 0.8456 0.7251 1.0000 0.0652
O37 O 0.3133 0.8117 0.6858 1.0000 0.0652
O38 O 0.3172 0.7991 0.1942 1.0000 0.0652
O39 O 0.2465 0.8320 0.1546 1.0000 0.0652
O40 O 0.2182 0.8425 0.4242 1.0000 0.0652
O41 O 0.1312 0.7450 0.6440 1.0000 0.0652
O42 O 0.1074 0.6589 0.4233 1.0000 0.0652
O43 O 0.0837 0.6546 0.1462 1.0000 0.0652
O44 O 0.0528 0.5421 0.2160 1.0000 0.0652
O45 O 0.1460 0.6277 0.1980 1.0000 0.0652
O46 O 0.1854 0.5231 0.2301 1.0000 0.0652
O47 O 0.0538 0.6017 0.9409 1.0000 0.0652
O48 O 0.3695 0.7334 0.7136 1.0000 0.0652
O49 O 0.3697 0.7351 0.1743 1.0000 0.0652
O50 O 0.0883 0.4901 0.4240 1.0000 0.0652
O51 O 0.1141 0.5161 0.1585 1.0000 0.0652
O52 O 0.4313 0.5189 0.9241 1.0000 0.0652
O53 O 0.0096 0.6576 0.1605 1.0000 0.0652
O54 O 0.0126 0.6392 0.7248 1.0000 0.0652
O55 O 0.9967 0.6979 0.4307 1.0000 0.0652
O56 O 0.3598 0.2823 0.9233 1.0000 0.0652
O57 O 0.9480 0.6837 0.2286 1.0000 0.0652
O58 O 0.6193 0.6506 0.7106 1.0000 0.0652
O59 O 0.6155 0.6469 0.1770 1.0000 0.0652
O60 O 0.5687 0.5623 0.7237 1.0000 0.0652
O61 O 0.5708 0.5697 0.1611 1.0000 0.0652
O62 O 0.4244 0.8557 0.9237 1.0000 0.0652
O63 O 0.7993 0.5816 0.6627 1.0000 0.0652
O64 O 0.2972 0.4120 0.2032 1.0000 0.0652
O65 O 0.7014 0.5697 0.6532 1.0000 0.0652
O66 O 0.7963 0.5834 0.2440 1.0000 0.0652
O67 O 0.3724 0.2328 0.2260 1.0000 0.0652
O68 O 0.5055 0.2596 0.7200 1.0000 0.0652
O69 O 0.5563 0.1725 0.6508 1.0000 0.0652
O70 O 0.5711 0.0657 0.1811 1.0000 0.0652
O71 O 0.6232 0.1550 0.1778 1.0000 0.0652
O72 O 0.5079 0.2617 0.1888 1.0000 0.0652




