data_PUK-9
_cell_length_a        15.578
_cell_length_b        9.1704
_cell_length_c        19.993
_cell_angle_alpha    90.00
_cell_angle_beta     90.00
_cell_angle_gamma    90.00


# setting 
# _symmetry_space_group_name_H-M 'Pbcn'


loop_
_symmetry_equiv_pos_as_xyz
'x,y,z'
'x+1/2,-y+1/2,-z'
'-x,y,-z+1/2'
'-x+1/2,-y+1/2,z+1/2'
'-x,-y,-z'
'-x-1/2,y-1/2,z'
'x,-y,z-1/2'
'x-1/2,y-1/2,-z-1/2'


loop_
_atom_site_label
_atom_site_type_sumbol
_atom_site_fract_x
_atom_site_fract_y
_atom_site_fract_z
_atom_site_occupancy
_atom_site_U_iso_or_equiv
Ge1 Ge 0.63216 0.79958 0.64727 0.78 0.0179
Ge2 Ge 0.49375 0.58373 0.59932 0.78 0.0170
Ge3 Ge 0.21865 0.40739 0.41086 0.78 0.0206
Ge4 Ge 0.36915 0.61943 0.47471 0.78 0.0190
Ge5 Ge 0.5 0.67442 0.75 0.78 0.0171
Al1 Al 0.63216 0.79958 0.64727 0.22 0.0179
Al2 Al 0.49375 0.58373 0.59932 0.22 0.0170
Al3 Al 0.21865 0.40739 0.41086 0.22 0.0206
Al4 Al 0.36915 0.61943 0.47471 0.22 0.0190
Al5 Al 0.5 0.67442 0.75 0.22 0.0171
O1 O 0.5591 0.7352 0.5875 1 0.0263
O2 O 0.3962 0.604 0.558 1 0.0317
O3 O 0.2804 0.5082 0.4643 1 0.0310
O4 O 0.2748 0.3028 0.3541 1 0.0350
O5 O 0.5855 0.7846 0.7261 1 0.0325
O6 O 0.4695 0.5644 0.6829 1 0.0285
O7 O 0.4568 0.5751 0.4258 1 0.0325
O8 O 0.6506 0.9833 0.6357 1 0.0361
O9 O 0.1552 0.3005 0.4619 1 0.0367
N1 N 0.6234 0.8917 0.3784 1 0.0800
C1 C 0.6539 0.7749 0.4168 1 0.1596
H1A H 0.6063 0.7219 0.4351 1 0.2406
H1B H 0.689 0.8116 0.4525 1 0.2406
H1C H 0.6875 0.7113 0.3891 1 0.2406
C2 C 0.5659 0.8447 0.3274 1 0.2406
H2A H 0.534 0.9265 0.3093 1 0.2888
H2B H 0.5256 0.7734 0.3447 1 0.2888
C3 C 0.5763 0.987 0.4207 1 0.4205
H3A H 0.5281 0.9352 0.4393 1 0.6320
H3B H 0.5561 1.0685 0.3953 1 0.6320
H3C H 0.6126 1.0202 0.4563 1 0.6320
C4 C 0.695 0.964 0.351 1 0.3052
H4A H 0.6759 1.046 0.3249 1 0.4585
H4B H 0.7264 0.8982 0.3228 1 0.4585
H4C H 0.7316 0.9979 0.3864 1 0.4585
C5 C 0.626 0.774 0.2715 1 0.4104
H5A H 0.5914 0.7375 0.2355 1 0.6155
H5B H 0.6583 0.695 0.2907 1 0.6155
H5C H 0.665 0.8464 0.2547 1 0.6155




