data_Rho_Deuterated_Berylloarsenate
_cell_length_a         14.001
_cell_length_b         14.001
_cell_length_c         14.001
_cell_angle_alpha     90
_cell_angle_beta      90
_cell_angle_gamma     90


# setting 
# _symmetry_space_group_name_H-M 'I23'


loop_
_symmetry_equiv_pos_as_xyz
'x,y,z'
'z,x,y'
'y,z,x'
'-y,-z,x'
'z,-x,-y'
'-y,z,-x'
'-z,-x,y'
'-z,x,-y'
'y,-z,-x'
'x,-y,-z'
'-x,y,-z'
'-x,-y,z'
'x+1/2,y+1/2,z+1/2'
'z+1/2,x+1/2,y+1/2'
'y+1/2,z+1/2,x+1/2'
'-y+1/2,-z+1/2,x+1/2'
'z+1/2,-x+1/2,-y+1/2'
'-y+1/2,z+1/2,-x+1/2'
'-z+1/2,-x+1/2,y+1/2'
'-z+1/2,x+1/2,-y+1/2'
'y+1/2,-z+1/2,-x+1/2'
'x+1/2,-y+1/2,-z+1/2'
'-x+1/2,y+1/2,-z+1/2'
'-x+1/2,-y+1/2,z+1/2'


loop_
_atom_site_label
_atom_site_type_sumbol
_atom_site_fract_x
_atom_site_fract_y
_atom_site_fract_z
_atom_site_occupancy
_atom_site_U_iso_or_equiv
RB1 Rb 0.5 0.0 0.0 1.0 0.0619
RB2 Rb 0.1903 0.1903 0.1903 1.0 0.0980
RB3 Rb 0.3716 0.3716 0.3716 0.87 0.0980
RB4 Rb 0.244 0.0 0.0 0.25 0.0980
BE1 Be 0.2173 0.9311 0.3717 1.0 0.0550
AS1 As 0.27446 0.12749 0.42737 1.0 0.0100
O1 O 0.2296 0.2349 0.3988 1.0 0.0190
O2 O 0.3882 0.1265 0.3899 1.0 0.0120
O3 O 0.2852 0.1055 0.5429 1.0 0.0560
O4 O 0.2094 0.0467 0.3679 1.0 0.0170
D2O1 O2-(D2O) 0.244 0.0 0.0 0.10 0.0600
D2O2 O2-(D2O) 0.066 0.066 0.066 0.23 0.0600
D2O3 O2-(D2O) 0.441 0.441 0.441 0.07 0.0600




