data_RUB-3
_cell_length_a         14.039
_cell_length_b         13.602
_cell_length_c         7.428
_cell_angle_alpha     90
_cell_angle_beta      102.22
_cell_angle_gamma     90


# setting 
# _symmetry_space_group_name_H-M 'C12/m1'


loop_
_symmetry_equiv_pos_as_xyz
'x,y,z'
'-x,y,-z'
'-x,-y,-z'
'x,-y,z'
'x+1/2,y+1/2,z'
'-x+1/2,y+1/2,-z'
'-x+1/2,-y+1/2,-z'
'x+1/2,-y+1/2,z'


loop_
_atom_site_label
_atom_site_type_sumbol
_atom_site_fract_x
_atom_site_fract_y
_atom_site_fract_z
_atom_site_occupancy
_atom_site_U_iso_or_equiv
SI1 Si 0.10276 0.11212 -0.04452 1 0.0000
SI2 Si 0.23364 0.11175 0.35042 1 0.0000
SI3 Si 0.11292 0.21938 0.58774 1 0.0000
O1 O 0.0 0.1419 0.0 1 0.0000
O2 O 0.0994 0.0 -0.10716 1 0.0000
O3 O 0.18747 0.12661 0.13589 1 0.0000
O4 O 0.12441 0.17997 -0.20622 1 0.0000
O5 O 0.26563 0.0 0.38796 1 0.0000
O6 O 0.32712 0.18095 0.41035 1 0.0000
O7 O 0.15422 0.13944 0.46724 1 0.0000
O8 O 0.0 0.23919 0.5 1 0.0000




