data_RUB-10_SiO2_Framework
_cell_length_a         13.112
_cell_length_b         12.903
_cell_length_c         12.407
_cell_angle_alpha     90
_cell_angle_beta      113.50
_cell_angle_gamma     90


# setting 
_symmetry_space_group_name_H-M 'P121/a1'


loop_
_symmetry_equiv_pos_as_xyz
'x,y,z'
'-x+1/2,y+1/2,-z'
'-x,-y,-z'
'x-1/2,-y-1/2,z'


loop_
_atom_site_label
_atom_site_type_symbol
_atom_site_fract_x
_atom_site_fract_y
_atom_site_fract_z
_atom_site_occupancy
_atom_site_U_iso_or_equiv
Si1 Si 0.3003 0.1257 0.1207 1 0.0001
Si2 Si 0.2975 0.1210 0.3594 1 0.0001
Si3 Si 0.0627 0.1268 0.3183 1 0.0001
Si4 Si 0.9222 0.1899 0.0622 1 0.0001
Si5 Si 0.0007 0.2581 0.4892 1 0.0001
Si6 Si 0.2992 0.8890 0.1088 1 0.0001
Si7 Si 0.2864 0.8847 0.3504 1 0.0001
Si8 Si 0.0468 0.8885 0.3340 1 0.0001
Si9 Si 0.9254 0.8006 0.0773 1 0.0001
O1 O 0.1789 0.1393 0.0177 1 0.0001
O2 O 0.3410 0.0078 0.1248 1 0.0001
O3 O 0.3869 0.1999 0.0963 1 0.0001
O4 O 0.2960 0.1544 0.2447 1 0.0001
O5 O 0.1930 0.1528 0.3686 1 0.0001
O6 O 0.3934 0.1688 0.4555 1 0.0001
O7 O 0.3082 0.0070 0.3699 1 0.0001
O8 O 0.0446 0.0110 0.3542 1 0.0001
O9 O 0.0011 0.2062 0.3720 1 0.0001
O10 O 0.0111 0.1359 0.1779 1 0.0001
O11 O 0.9756 0.2048 0.9673 1 0.0001
O12 O 0.8142 0.1180 0.0063 1 0.0001
O13 O 0.1123 0.3247 0.5507 1 0.0001
O14 O 0.9967 0.1694 0.5780 1 0.0001
O15 O 0.2787 0.8539 0.2222 1 0.0001
O16 O 0.3906 0.8156 0.0936 1 0.0001
O17 O 0.1721 0.8541 0.3608 1 0.0001
O18 O 0.9673 0.8607 0.2007 1 0.0001




