data_RUB-24
_cell_length_a        7.6677
_cell_length_b        7.6677
_cell_length_c        27.0625
_cell_angle_alpha    90.0
_cell_angle_beta     90.0
_cell_angle_gamma    90.0


# setting 2
_symmetry_space_group_name_H-M 'I41/amd'


loop_
_symmetry_equiv_pos_as_xyz
'x,y,z'
'-y+1/4,x+3/4,z+1/4'
'y+1/4,-x+1/4,z+3/4'
'x,-y,-z'
'-x,y+1/2,-z'
'-x,-y+1/2,z'
'y+1/4,x+3/4,-z+1/4'
'-y+1/4,-x+1/4,-z+3/4'
'-x,-y,-z'
'y-1/4,-x-3/4,-z-1/4'
'-y-1/4,x-1/4,-z-3/4'
'-x,y,z'
'x,-y-1/2,z'
'x,y-1/2,-z'
'-y-1/4,-x-3/4,z-1/4'
'y-1/4,x-1/4,z-3/4'
'x+1/2,y+1/2,z+1/2'
'-y+3/4,x+5/4,z+3/4'
'y+3/4,-x+3/4,z+5/4'
'x+1/2,-y+1/2,-z+1/2'
'-x+1/2,y+1,-z+1/2'
'-x+1/2,-y+1,z+1/2'
'y+3/4,x+5/4,-z+3/4'
'-y+3/4,-x+3/4,-z+5/4'
'-x+1/2,-y+1/2,-z+1/2'
'y+1/4,-x-1/4,-z+1/4'
'-y+1/4,x+1/4,-z-1/4'
'-x+1/2,y+1/2,z+1/2'
'x+1/2,-y,z+1/2'
'x+1/2,y,-z+1/2'
'-y+1/4,-x-1/4,z+1/4'
'y+1/4,x+1/4,z-1/4'


loop_
_atom_site_label
_atom_site_type_symbol
_atom_site_fract_x
_atom_site_fract_y
_atom_site_fract_z
_atom_site_occupancy
_atom_site_U_iso_or_equiv
Si1 Si 0.3052 0.0552 0.125 1 0.0215
Si2 Si 0 0.5452 0.0561 1 0.0215
O1 O 0.1784 0.0173 0.0811 1 0.0367
O2 O 0 0.0244 0.3979 1 0.0367
O3 O 0 0.75 0.0594 1 0.0367
O4 O 0 0.5 0 1 0.0367




