data_UCR-20-GaGeS-TAEA
_cell_length_a        20.9352
_cell_length_b        20.9352
_cell_length_c        20.9352
_cell_angle_alpha    90.0
_cell_angle_beta     90.0
_cell_angle_gamma    90.0


# setting 
# _symmetry_space_group_name_H-M 'I-43m'


loop_
_symmetry_equiv_pos_as_xyz
'x,y,z'
'-x,z,-y'
'-x,-z,y'
'-z,-y,x'
'z,-y,-x'
'y,-x,-z'
'-y,x,-z'
'z,x,y'
'y,z,x'
'-y,-z,x'
'z,-x,-y'
'-y,z,-x'
'-z,-x,y'
'-z,x,-y'
'y,-z,-x'
'x,-y,-z'
'-x,y,-z'
'-x,-y,z'
'-y,-x,z'
'y,x,z'
'-z,y,-x'
'z,y,x'
'x,-z,-y'
'x,z,y'
'x+1/2,y+1/2,z+1/2'
'-x+1/2,z+1/2,-y+1/2'
'-x+1/2,-z+1/2,y+1/2'
'-z+1/2,-y+1/2,x+1/2'
'z+1/2,-y+1/2,-x+1/2'
'y+1/2,-x+1/2,-z+1/2'
'-y+1/2,x+1/2,-z+1/2'
'z+1/2,x+1/2,y+1/2'
'y+1/2,z+1/2,x+1/2'
'-y+1/2,-z+1/2,x+1/2'
'z+1/2,-x+1/2,-y+1/2'
'-y+1/2,z+1/2,-x+1/2'
'-z+1/2,-x+1/2,y+1/2'
'-z+1/2,x+1/2,-y+1/2'
'y+1/2,-z+1/2,-x+1/2'
'x+1/2,-y+1/2,-z+1/2'
'-x+1/2,y+1/2,-z+1/2'
'-x+1/2,-y+1/2,z+1/2'
'-y+1/2,-x+1/2,z+1/2'
'y+1/2,x+1/2,z+1/2'
'-z+1/2,y+1/2,-x+1/2'
'z+1/2,y+1/2,x+1/2'
'x+1/2,-z+1/2,-y+1/2'
'x+1/2,z+1/2,y+1/2'


loop_
_atom_site_label
_atom_site_type_sumbol
_atom_site_fract_x
_atom_site_fract_y
_atom_site_fract_z
_atom_site_occupancy
_atom_site_U_iso_or_equiv
Ga1 Ga 0.06653 0.19050 0.44781 1.0 0.0360
S2 S 0.13182 0.13182 0.3850 1.0 0.0417
S3 S 0.01392 0.24862 0.37401 1.0 0.0442
S4 S 0.0000 0.1242 0.5000 1.0 0.0457
N1 N -0.0590 0.0590 0.0590 2.57 0.0960




