data_STA-15
_cell_length_a        14.7953
_cell_length_b        27.3634
_cell_length_c        8.3446
_cell_angle_alpha    90.00
_cell_angle_beta     90.00
_cell_angle_gamma    90.00


# setting 
# _symmetry_space_group_name_H-M 'Iba2'


loop_
_symmetry_equiv_pos_as_xyz
'x,y,z'
'-x,-y,z'
'-x,y,z+1/2'
'x,-y,z+1/2'
'x+1/2,y+1/2,z+1/2'
'-x+1/2,-y+1/2,z+1/2'
'-x+1/2,y+1/2,z+1'
'x+1/2,-y+1/2,z+1'


loop_
_atom_site_label
_atom_site_type_sumbol
_atom_site_fract_x
_atom_site_fract_y
_atom_site_fract_z
_atom_site_occupancy
_atom_site_U_iso_or_equiv
P1 P 0.9023 0.78324 0.1670 1.0 0.0380
P2 P 0.9059 0.66998 0.6631 1.0 0.0380
P3 P 0.7201 0.63889 0.1563 1.0 0.0380
P4 P 0.3978 0.55229 0.1563 1.0 0.0380
Al1 Al 0.9067 0.77968 0.7878 1.0 0.0380
Al2 Al 0.8999 0.67376 0.2838 1.0 0.0380
Al3 Al 0.5931 0.55478 0.2777 1.0 0.0380
Al4 Al 0.2708 0.63361 0.2838 1.0 0.0380
O1 O 0.8853 0.73362 0.2400 1.0 0.0380
O2 O 0.9912 0.80303 0.2293 1.0 0.0380
O3 O 0.8243 0.81536 0.2184 1.0 0.0380
O4 O 0.8998 0.7807 0.9891 1.0 0.0380
O5 O 0.8931 0.72135 0.7218 1.0 0.0380
O6 O 0.8401 0.63490 0.7432 1.0 0.0380
O7 O 0.8973 0.66701 0.4854 1.0 0.0380
O8 O 0.9996 0.65230 0.2078 1.0 0.0380
O9 O 0.8185 0.63735 0.2024 1.0 0.0380
O10 O 0.6775 0.68709 0.2001 1.0 0.0380
O11 O 0.7123 0.6282 0.9824 1.0 0.0380
O12 O 0.6733 0.59720 0.2398 1.0 0.0380
O13 O 0.4859 0.57165 0.2226 1.0 0.0380
O14 O 0.3781 0.50091 0.2077 1.0 0.0380
O15 O 0.3170 0.58383 0.1929 1.0 0.0380
O16 O 0.4091 0.54875 0.9799 1.0 0.0380
C1 C 0.0180 0.52593 0.7884 1.0 0.0376
C2 C 0.1111 0.5250 0.8634 1.0 0.0376
C3 C 0.1527 0.4771 0.8251 1.0 0.0376




