data_STA-1_Magnesium_Aluminophosphate
_cell_length_a        13.620
_cell_length_b        13.620
_cell_length_c        21.649
_cell_angle_alpha    90
_cell_angle_beta     90
_cell_angle_gamma    90


# setting 
# _symmetry_space_group_name_H-M 'P-4n2'


loop_
_symmetry_equiv_pos_as_xyz
'x,y,z'
'y,-x,-z'
'-y,x,-z'
'-x,-y,z'
'y+1/2,x+1/2,-z+1/2'
'-y+1/2,-x+1/2,-z+1/2'
'-x+1/2,y+1/2,z+1/2'
'x+1/2,-y+1/2,z+1/2'


loop_
_atom_site_label
_atom_site_type_sumbol
_atom_site_fract_x
_atom_site_fract_y
_atom_site_fract_z
_atom_site_occupancy
_atom_site_U_iso_or_equiv
P1 P 0.3905 0.1197 0.1332 1.0 0.0203
P2 P 0.1100 0.1207 0.1892 1.0 0.0214
P3 P 0.2094 -0.1143 0.0563 1.0 0.0215
P4 P 0.2953 -0.2047 0.2500 1.0 0.0219
Al1 Al 0.2022 0.1119 0.0597 1.0 0.0223
Al2 Al 0.1156 -0.1114 0.1885 1.0 0.0234
Al3 Al 0.3900 -0.1082 0.1346 1.0 0.0248
Al4 Al 0.2950 0.2050 0.2500 1.0 0.0199
O1 O 0.3220 0.1410 0.0821 1.0 0.0380
O2 O 0.3706 0.1832 0.1872 1.0 0.0418
O3 O 0.3763 0.0132 0.1538 1.0 0.0304
O4 O 0.4928 0.1360 0.1110 1.0 0.0317
O5 O 0.1959 -0.0099 0.0369 1.0 0.0469
O6 O 0.1260 0.1403 0.1220 1.0 0.0329
O7 O 0.1812 0.1848 -0.0039 1.0 0.0393
O8 O 0.1737 0.1878 0.2267 1.0 0.0317
O9 O 0.1332 0.0152 0.2036 1.0 0.0317
O10 O 0.3141 -0.1304 0.0715 1.0 0.0481
O11 O 0.1439 -0.1372 0.1105 1.0 0.0367
O12 O 0.0057 0.1434 0.2061 1.0 0.0317
O13 O 0.1906 -0.1879 0.2353 1.0 0.0355
O14 O 0.3577 -0.1789 0.1965 1.0 0.0507




