data_STA-6
_cell_length_a        14.322
_cell_length_b        14.322
_cell_length_c        10.424
_cell_angle_alpha    90
_cell_angle_beta     90
_cell_angle_gamma    90


# setting 
_symmetry_space_group_name_H-M 'P4/mnc'


loop_
_symmetry_equiv_pos_as_xyz
'x,y,z'
'-y,x,z'
'y,-x,z'
'x+1/2,-y+1/2,-z+1/2'
'-x+1/2,y+1/2,-z+1/2'
'-x,-y,z'
'y+1/2,x+1/2,-z+1/2'
'-y+1/2,-x+1/2,-z+1/2'
'-x,-y,-z'
'y,-x,-z'
'-y,x,-z'
'-x-1/2,y-1/2,z-1/2'
'x-1/2,-y-1/2,z-1/2'
'x,y,-z'
'-y-1/2,-x-1/2,z-1/2'
'y-1/2,x-1/2,z-1/2'


loop_
_atom_site_label
_atom_site_type_symbol
_atom_site_fract_x
_atom_site_fract_y
_atom_site_fract_z
_atom_site_occupancy
_atom_site_U_iso_or_equiv
Al1 Al 0.2689 0.1091 0.0 0.85 0.0210
Al2 Al 0.3907 0.8907 0.75 0.85 0.0310
Mg1 Mg 0.2689 0.1091 0.0 0.15 0.0210
Mg2 Mg 0.3907 0.8907 0.75 0.15 0.0310
P1 P 0.6101 0.8899 0.75 1.0 0.0310
P2 P 0.2666 0.8863 0.0 1.0 0.0239
O1 O 0.2414 0.9886 0.0 1.0 0.0380
O2 O 0.3209 0.8603 0.8826 1.0 0.0490
O3 O 0.5093 0.8722 0.7865 1.0 0.0490
O4 O 0.175 0.8339 0.0 1.0 0.0431
O5 O 0.6683 0.8619 0.8614 1.0 0.0640
N1 N 0.5595 0.6718 0.0547 0.09 0.3002
N2 N 0.5368 0.3621 0.0 0.09 0.3002
N3 N 0.4221 0.5146 0.2956 0.09 0.3002
N4 N 0.4938 0.5105 0.7902 0.09 0.3002
C1 C 0.4937 0.7371 1.0 0.09 0.3002
C2 C 0.6187 0.3376 0.0918 0.09 0.3002
C3 C 0.4966 0.4748 0.3812 0.09 0.3002
C4 C 0.4092 0.5505 0.7258 0.09 0.3002
C5 C 0.4451 0.32 0.0477 0.09 0.3002
C6 C 0.4066 0.348 0.1815 0.09 0.3002
C7 C 0.3685 0.4473 0.2101 0.09 0.3002
C8 C 0.4508 0.605 0.2332 0.09 0.3002
C9 C 0.5145 0.5906 0.1159 0.09 0.3002
C10 C 0.646 0.6501 0.9782 0.09 0.3002
C11 C 0.648 0.5692 0.8802 0.09 0.3002
C12 C 0.581 0.5662 0.7643 0.09 0.3002
C13 C 0.5025 0.4061 0.7672 0.09 0.3002
C14 C 0.5593 0.3481 0.8665 0.09 0.3002




