data_STA-2
_cell_length_a        12.726
_cell_length_b        12.726
_cell_length_c        30.939
_cell_angle_alpha    90
_cell_angle_beta     90
_cell_angle_gamma    120


# setting H
_symmetry_space_group_name_H-M 'R-3'


loop_
_symmetry_equiv_pos_as_xyz
'x,y,z'
'-y,x-y,z'
'-x+y,-x,z'
'-x,-y,-z'
'y,-x+y,-z'
'x-y,x,-z'
'x+1/3,y+2/3,z+2/3'
'-y+1/3,x-y+2/3,z+2/3'
'-x+y+1/3,-x+2/3,z+2/3'
'-x+1/3,-y+2/3,-z+2/3'
'y+1/3,-x+y+2/3,-z+2/3'
'x-y+1/3,x+2/3,-z+2/3'
'x+2/3,y+1/3,z+1/3'
'-y+2/3,x-y+1/3,z+1/3'
'-x+y+2/3,-x+1/3,z+1/3'
'-x+2/3,-y+1/3,-z+1/3'
'y+2/3,-x+y+1/3,-z+1/3'
'x-y+2/3,x+1/3,-z+1/3'


loop_
_atom_site_label
_atom_site_type_symbol
_atom_site_fract_x
_atom_site_fract_y
_atom_site_fract_z
_atom_site_occupancy
_atom_site_U_iso_or_equiv
Al1 Al 0.7533 0.7572 0.2954 1.0 0.0165
Al2 Al 0.5762 0.9023 0.2165 1.0 0.0217
P1 P 0.5778 0.9043 0.1144 1.0 0.0194
P2 P 0.7568 1.0013 0.2914 1.0 0.0137
O1 O 0.6138 0.9393 0.1617 1.0 0.0348
O2 O 0.5341 0.7532 0.2251 1.0 0.0350
O3 O 0.7928 0.9072 0.2939 1.0 0.0386
O4 O 0.4612 0.9280 0.2310 1.0 0.0356
O5 O 0.7014 0.9959 0.2472 1.0 0.0337
O6 O 0.8644 1.1224 0.2968 1.0 0.0348
O7 O 0.6689 0.9831 0.3267 1.0 0.0461
O8 O 0.6563 0.0092 0.0856 1.0 0.0342
N1 N 0.0000 0.0000 0.1025 1.0 0.0688
C1 C 0.0000 0.0000 0.1842 1.0 0.0983
C2 C -0.0415 0.0827 0.1662 1.0 0.1350
C3 C -0.0415 0.0787 0.1177 1.0 0.1410
C4 C -0.0312 0.0351 0.0556 1.0 0.2156
C5 C 0.0000 0.0000 0.0241 1.0 0.1887
H1 H 0.0000 0.0000 0.2147 1.0 0.0000
H2 H 0.0103 0.1631 0.1757 1.0 0.0000
H3 H -0.1222 0.0567 0.1762 1.0 0.0000
H4 H 0.0090 0.1580 0.1069 1.0 0.0000
H5 H -0.1226 0.0498 0.0498 1.0 0.0000
H6 H 0.0075 0.1208 0.0540 1.0 0.0000
H7 H -0.1164 0.0017 0.0540 1.0 0.0000
H8 H 0.0851 0.0322 0.0249 1.0 0.0000
H9 H -0.0211 0.0263 -0.0015 1.0 0.0000




