data_UCSB-9
_cell_length_a        12.4987
_cell_length_b        14.3155
_cell_length_c        7.3751
_cell_angle_alpha    90.0
_cell_angle_beta     90.0
_cell_angle_gamma    90.0


# setting 
# _symmetry_space_group_name_H-M 'Pnna'


loop_
_symmetry_equiv_pos_as_xyz
'x,y,z'
'x,-y+1/2,-z+1/2'
'-x+1/2,y+1/2,-z+1/2'
'-x+1/2,-y,z'
'-x,-y,-z'
'-x,y-1/2,z-1/2'
'x-1/2,-y-1/2,z-1/2'
'x-1/2,y,-z'


loop_
_atom_site_label
_atom_site_type_sumbol
_atom_site_fract_x
_atom_site_fract_y
_atom_site_fract_z
_atom_site_occupancy
_atom_site_U_iso_or_equiv
Ga1 Ga 0.83940 0.22510 0.04460 1.0 0.0149
Ge1 Ge 0.05420 0.25000 0.25000 1.0 0.0170
Ge2 Ge 0.25200 0.38420 0.20450 1.0 0.0170
O1 O 0.76940 0.25000 0.25000 1.0 0.0290
O2 O 0.97230 0.18760 0.09560 1.0 0.0231
O3 O 0.13200 0.32980 0.12580 1.0 0.0270
O4 O 0.85830 0.32670 0.91340 1.0 0.0260
O5 O 0.25000 0.50000 0.13480 1.0 0.0470
O6 O 0.76890 0.13300 0.94180 1.0 0.0270
C1 C 0.57940 0.47140 0.25710 1.0 0.0780
N1 N 0.57090 0.36890 0.25580 1.0 0.0730




