data_SSZ-82
_cell_length_a        24.2783
_cell_length_b        11.4665
_cell_length_c        14.1127 
_cell_angle_alpha    90.00
_cell_angle_beta     90.00
_cell_angle_gamma    90.00


# setting 
# _symmetry_space_group_name_H-M 'Pmmn'


loop_
_symmetry_equiv_pos_as_xyz
'x,y,z'
'x+1/2,-y,-z'
'-x,y+1/2,-z'
'-x+1/2,-y+1/2,z'
'-x,-y,-z'
'-x-1/2,y,z'
'x,-y-1/2,z'
'x-1/2,y-1/2,-z'


loop_
_atom_site_label
_atom_site_type_sumbol
_atom_site_fract_x
_atom_site_fract_y
_atom_site_fract_z
_atom_site_occupancy
_atom_site_U_iso_or_equiv
Si1 Si 0.7500 0.2500 0.0158 1.00 0.0087
Si2 Si 0.2500 0.3864 0.1081 1.00 0.0087
Si3 Si 0.3157 0.7500 0.3248 1.00 0.0087
Si4 Si 0.4311 0.5281 0.1025 1.00 0.0087
Si5 Si 0.3565 0.3862 0.2291 1.00 0.0087
Si6 Si 0.7500 0.4987 0.0959 1.00 0.0087
Si7 Si 0.5513 0.6131 0.0871 1.00 0.0087
Si8 Si 0.3584 0.7500 0.1131 1.00 0.0087
Si9 Si 0.6539 0.6156 0.2102 1.00 0.0087
Si10 Si 0.3167 0.5061 0.4078 0.75 0.0087
Si11 Si 0.6854 0.6195 0.4139 0.66 0.0087
B1 B 0.3167 0.5061 0.4078 0.25 0.0087
B2 B 0.6854 0.6195 0.4139 0.34 0.0087
O1 O 0.7500 0.3604 0.0851 1.00 0.0212
O2 O 0.8026 0.2500 0.9473 1.00 0.0212
O3 O 0.3042 0.4226 0.1661 1.00 0.0212
O4 O 0.2500 0.4570 0.0112 1.00 0.0212
O5 O 0.2500 0.2500 0.0825 1.00 0.0212
O6 O 0.3351 0.8640 0.3832 1.00 0.0212
O7 O 0.3474 0.7500 0.2250 1.00 0.0212
O8 O 0.2500 0.7500 0.3042 1.00 0.0212
O9 O 0.4095 0.4537 0.1911 1.00 0.0212
O10 O 0.4927 0.5696 0.1247 1.00 0.0212
O11 O 0.4286 0.4553 0.0006 1.00 0.0212
O12 O 0.3930 0.6383 0.0845 1.00 0.0212
O13 O 0.3491 0.4224 0.3378 1.00 0.0212
O14 O 0.3696 0.2500 0.2220 1.00 0.0212
O15 O 0.8043 0.5340 0.1533 1.00 0.0212
O16 O 0.5942 0.5856 0.1700 1.00 0.0212
O17 O 0.5491 0.7500 0.0632 1.00 0.0212
O18 O 0.6523 0.5821 0.3213 1.00 0.0212
O19 O 0.6691 0.7500 0.1909 1.00 0.0212
O20 O 0.3391 0.4685 0.5096 1.00 0.0212
O21 O 0.2500 0.4933 0.4007 1.00 0.0212
O22 O 0.6649 0.7500 0.4345 1.00 0.0212
O23 O 0.7500 0.5938 0.4007 1.00 0.0212
Ow1 O 0.5170 0.6100 0.3810 0.74 0.0800
Ow2 O 0.7500 0.2500 0.3630 0.67 0.0800
Ow3 O 0.9780 0.1260 0.3400 0.66 0.0800
Ow4 O 0.6250 0.2500 0.3550 0.74 0.0800




