data_SSZ-48_Calcined
_cell_length_a        11.1527
_cell_length_b        5.002
_cell_length_c        13.667
_cell_angle_alpha    90
_cell_angle_beta     100.633
_cell_angle_gamma    90


# setting 
# _symmetry_space_group_name_H-M 'P21'


loop_
_symmetry_equiv_pos_as_xyz
'x,y,z'
'-x,y+1/2,-z'


loop_
_atom_site_label
_atom_site_type_sumbol
_atom_site_fract_x
_atom_site_fract_y
_atom_site_fract_z
_atom_site_occupancy
_atom_site_U_iso_or_equiv
Si1 Si 0.2558 0.3385 0.1869 1.0 0.0190
Si2 Si 0.3963 0.3355 0.3874 1.0 0.0640
Si3 Si 0.4323 0.3363 0.6058 1.0 0.0950
Si4 Si 0.6337 0.338 0.8955 1.0 0.0041
Si5 Si 0.3516 0.4094 0.7996 1.0 0.0041
Si6 Si 0.7451 0.4067 0.1181 1.0 0.0030
Si7 Si 0.9952 0.3947 0.0657 1.0 0.0141
O1 O 0.282 0.3816 0.3036 1.0 0.0450
O2 O 0.3294 0.5403 0.1315 1.0 0.0020
O3 O 0.1138 0.3692 0.1504 1.0 0.0010
O4 O 0.2936 0.0386 0.162 1.0 0.0239
O5 O 0.3565 0.3572 0.4942 1.0 0.0120
O6 O 0.4574 1.0463 0.3752 1.0 0.1260
O7 O 0.502 0.5462 0.3807 1.0 0.0439
O8 O 0.343 0.3596 0.6825 1.0 0.0730
O9 O 0.4891 0.3747 0.8557 1.0 0.0020
O10 O 0.6629 0.3845 0.0099 1.0 0.0020
O11 O 0.2652 0.2098 0.8435 1.0 0.0730
O12 O 0.3071 0.7112 0.8097 1.0 0.0540
O13 O 0.8812 0.341 0.1139 1.0 0.0020
O14 O 0.0061 0.1947 0.9774 1.0 0.0819




