data_SSZ-44_Calcined
_cell_length_a        11.4853
_cell_length_b        21.9458
_cell_length_c        7.3881
_cell_angle_alpha    90.0
_cell_angle_beta     94.702
_cell_angle_gamma    90.0


# setting 
# _symmetry_space_group_name_H-M 'P121/m1'


loop_
_symmetry_equiv_pos_as_xyz
'x,y,z'
'-x,y+1/2,-z'
'-x,-y,-z'
'x,-y-1/2,z'


loop_
_atom_site_label
_atom_site_type_sumbol
_atom_site_fract_x
_atom_site_fract_y
_atom_site_fract_z
_atom_site_occupancy
_atom_site_U_iso_or_equiv
Si1 Si 0.27227 0.97791 0.93601 1.0 0.0001
Si2 Si 0.13548 0.62930 0.10193 1.0 0.0001
Si3 Si 0.23886 0.67904 0.47825 1.0 0.0142
Si4 Si 0.39323 0.56890 0.59794 1.0 0.0019
Si5 Si 0.03652 0.68184 0.74254 1.0 0.0161
Si6 Si 0.05149 0.04087 0.76211 1.0 0.0115
Si7 Si 0.11053 0.06798 0.36508 1.0 0.0001
Si8 Si 0.35948 0.02838 0.29204 1.0 0.0039
O1 O 0.22578 0.91806 0.02742 1.0 0.0110
O2 O 0.32885 0.96241 0.75474 1.0 0.0331
O3 O 0.36382 0.01059 0.08089 1.0 0.0365
O4 O 0.16115 0.02349 0.89856 1.0 0.0162
O5 O 0.02146 0.59436 0.15514 1.0 0.0001
O6 O 0.19913 0.66360 0.27348 1.0 0.0098
O7 O 0.09682 0.67737 0.94529 1.0 0.0453
O8 O 0.27877 0.75000 0.49498 1.0 0.0128
O9 O 0.34544 0.63729 0.55819 1.0 0.0258
O10 O 0.13244 0.66902 0.60239 1.0 0.0218
O11 O 0.36967 0.53179 0.41218 1.0 0.0087
O12 O 0.53084 0.57271 0.65389 1.0 0.0194
O13 O 0.93509 0.63319 0.70903 1.0 0.0258
O14 O 0.98407 0.75000 0.71105 1.0 0.0303
O15 O 0.96479 0.98471 0.73380 1.0 0.0147
O16 O 0.09791 0.06329 0.57827 1.0 0.0087
O17 O 0.24371 0.06267 0.32726 1.0 0.0365




