data_SSZ-58
_cell_length_a        25.1118
_cell_length_b        12.4976
_cell_length_c        12.8598
_cell_angle_alpha    90.0
_cell_angle_beta     90.0
_cell_angle_gamma    90.0


# setting 
# _symmetry_space_group_name_H-M 'Pmma'


loop_
_symmetry_equiv_pos_as_xyz
'x,y,z'
'x+1/2,-y,-z'
'-x,y,-z'
'-x+1/2,-y,z'
'-x,-y,-z'
'-x-1/2,y,z'
'x,-y,z'
'x-1/2,y,-z'


loop_
_atom_site_label
_atom_site_type_sumbol
_atom_site_fract_x
_atom_site_fract_y
_atom_site_fract_z
_atom_site_occupancy
_atom_site_U_iso_or_equiv
Si1 Si 0.1345 0.1917 0.3447 1.0 0.0238
Si2 Si 0.1530 0.1237 0.1137 1.0 0.0238
Si3 Si 0.0786 0.1952 0.7410 1.0 0.0238
Si4 Si 0.1535 0.3784 0.6816 1.0 0.0238
Si5 Si 0.1887 0.0 0.4586 1.0 0.0238
Si6 Si 0.1499 0.0 0.6907 1.0 0.0238
Si7 Si 0.0195 0.1245 0.3833 1.0 0.0238
Si8 Si 0.1889 0.3780 0.4545 1.0 0.0238
Si9 Si 0.25 0.1943 0.9882 1.0 0.0238
Si10 Si 0.25 0.0 0.8389 1.0 0.0238
Si11 Si 0.0582 0.1264 0.9634 1.0 0.0238
Si12 Si 0.25 0.3760 0.8283 1.0 0.0238
O1 O 0.1638 0.1056 0.4152 1.0 0.0380
O2 O 0.0746 0.1842 0.3747 1.0 0.0380
O3 O 0.1534 0.3110 0.3771 1.0 0.0380
O4 O 0.1463 0.1729 0.2272 1.0 0.0380
O5 O 0.2006 0.1842 0.0640 1.0 0.0380
O6 O 0.1647 0.0 0.1211 1.0 0.0380
O7 O 0.1000 0.1470 0.0543 1.0 0.0380
O8 O 0.0749 0.1916 0.8617 1.0 0.0380
O9 O 0.0227 0.1767 0.6889 1.0 0.0380
O10 O 0.1193 0.1077 0.7007 1.0 0.0380
O11 O 0.1028 0.3124 0.7089 1.0 0.0380
O12 O 0.1343 0.5 0.6846 1.0 0.0380
O13 O 0.1753 0.3484 0.5709 1.0 0.0380
O14 O 0.1975 0.3467 0.7636 1.0 0.0380
O15 O 0.1792 0.0 0.5810 1.0 0.0380
O16 O 0.25 0.0 0.4275 1.0 0.0380
O17 O 0.1997 0.0 0.7679 1.0 0.0380
O18 O 0.0 0.1429 0.5 1.0 0.0380
O19 O 0.0214 0.0 0.3626 1.0 0.0380
O20 O 0.25 0.3498 0.4374 1.0 0.0380
O21 O 0.1764 0.5 0.4277 1.0 0.0380
O22 O 0.25 0.3077 0.9318 1.0 0.0380
O23 O 0.25 0.1051 0.9037 1.0 0.0380
O24 O 0.0 0.1621 0.0 1.0 0.0380
O25 O 0.0586 0.0 0.9310 1.0 0.0380
O26 O 0.25 0.5 0.8618 1.0 0.0380




