data_SSZ-53
_cell_length_a        5.0192
_cell_length_b        33.7437
_cell_length_c        21.1653
_cell_angle_alpha    90.0
_cell_angle_beta     90.485
_cell_angle_gamma    90.0


# setting 
# _symmetry_space_group_name_H-M 'C2/c'


loop_
_symmetry_equiv_pos_as_xyz
'x,y,z'
'-x,y,-z+1/2'
'-x,-y,-z'
'x,-y,z-1/2'
'x+1/2,y+1/2,z'
'-x+1/2,y+1/2,-z+1/2'
'-x+1/2,-y+1/2,-z'
'x+1/2,-y+1/2,z-1/2'


loop_
_atom_site_label
_atom_site_type_sumbol
_atom_site_fract_x
_atom_site_fract_y
_atom_site_fract_z
_atom_site_occupancy
_atom_site_U_iso_or_equiv
Si1 Si 0.551 0.6108 0.5041 1.0 0.0270
Si2 Si 0.056 0.5621 0.5206 1.0 0.0270
Si3 Si 0.534 0.6985 0.9880 1.0 0.0270
Si4 Si 0.457 0.3787 0.6453 1.0 0.0270
Si5 Si 0.947 0.4892 0.6025 1.0 0.0270
Si6 Si 0.457 0.4670 0.6784 1.0 0.0270
Si7 Si 0.955 0.3322 0.6790 1.0 0.0270
Si8 Si 0.037 0.2763 0.5707 1.0 0.0270
O1 O 0.332 0.2892 0.5454 1.0 0.0060
O2 O 0.484 0.3850 0.5710 1.0 0.0060
O3 O 0.492 0.3460 0.4656 1.0 0.0060
O4 O 0.500 0.5176 0.2500 1.0 0.0060
O5 O 0.996 0.5332 0.5782 1.0 0.0060
O6 O 0.346 0.5801 0.5308 1.0 0.0060
O7 O 0.843 0.5966 0.5214 1.0 0.0060
O8 O 0.162 0.4768 0.6548 1.0 0.0060
O9 O 0.659 0.4877 0.6326 1.0 0.0060
O10 O 0.0 0.6811 0.2500 1.0 0.0060
O11 O 0.990 0.2931 0.6378 1.0 0.0060
O12 O 0.658 0.3470 0.6705 1.0 0.0060
O13 O 0.161 0.3648 0.6605 1.0 0.0060
O14 O 0.509 0.7290 0.5698 1.0 0.0060
O15 O 0.957 0.4610 0.5434 1.0 0.0060
O16 O 0.488 0.4203 0.8220 1.0 0.0060
O17 O 0.168 0.2948 0.9834 1.0 0.0060




