data_SSZ-59
_cell_length_a        5.023
_cell_length_b        12.735
_cell_length_c        14.722
_cell_angle_alpha    103.44
_cell_angle_beta     90.51
_cell_angle_gamma    100.880


# setting 
_symmetry_space_group_name_H-M 'P-1'


loop_
_symmetry_equiv_pos_as_xyz
'x,y,z'
'-x,-y,-z'


loop_
_atom_site_label
_atom_site_type_symbol
_atom_site_fract_x
_atom_site_fract_y
_atom_site_fract_z
_atom_site_occupancy
_atom_site_U_iso_or_equiv
Si1 Si 0.104 0.0959 0.6362 1.0 0.0215
Si2 Si 0.680 0.4459 0.3118 1.0 0.0215
Si3 Si 0.662 0.2151 0.7202 1.0 0.0215
Si4 Si 0.690 0.2714 0.4214 1.0 0.0215
Si5 Si 0.750 0.4131 0.6226 1.0 0.0215
Si6 Si 0.665 0.3797 0.9041 1.0 0.0215
Si7 Si 0.750 0.4731 0.1124 1.0 0.0215
Si8 Si 0.131 0.1485 0.4432 1.0 0.0215
O1 O 0.994 0.9703 0.624 1.0 0.0160
O2 O 0.410 0.119 0.681 1.0 0.0160
O3 O 0.068 0.832 0.297 1.0 0.0160
O4 O 0.117 0.134 0.5437 1.0 0.0160
O5 O 0.984 0.238 0.421 1.0 0.0160
O6 O 0.553 0.826 0.584 1.0 0.0160
O7 O 0.673 0.331 0.3368 1.0 0.0160
O8 O 0.414 0.491 0.344 1.0 0.0160
O9 O 0.067 0.464 0.644 1.0 0.0160
O10 O 0.681 0.421 0.1999 1.0 0.0160
O11 O 0.639 0.259 0.8313 1.0 0.0160
O12 O 0.664 0.314 0.672 1.0 0.0160
O13 O 0.684 0.366 0.5135 1.0 0.0160
O14 O 0.694 0.378 0.0146 1.0 0.0160
O15 O 0.920 0.467 0.880 1.0 0.0160
O16 O 0.596 0.570 0.113 1.0 0.0160




