data_SSZ-51
_cell_length_a        21.759
_cell_length_b        13.821
_cell_length_c        14.224
_cell_angle_alpha    90.0
_cell_angle_beta     98.849
_cell_angle_gamma    90.0


# setting 
# _symmetry_space_group_name_H-M 'C2/c'


loop_
_symmetry_equiv_pos_as_xyz
'x,y,z'
'-x,y,-z+1/2'
'-x,-y,-z'
'x,-y,z-1/2'
'x+1/2,y+1/2,z'
'-x+1/2,y+1/2,-z+1/2'
'-x+1/2,-y+1/2,-z'
'x+1/2,-y+1/2,z-1/2'


loop_
_atom_site_label
_atom_site_type_sumbol
_atom_site_fract_x
_atom_site_fract_y
_atom_site_fract_z
_atom_site_occupancy
_atom_site_U_iso_or_equiv
P1 P 0.05959 0.12051 0.01465 1 0.0117
P2 P 0.17164 -0.21536 -0.10591 1 0.0091
P3 P 0.26241 0.11092 0.06219 1 0.0089
P4 P 0.15797 -0.11435 0.20493 1 0.0106
Al5 Al 0.16167 0.20348 -0.09108 1 0.0091
Al6 Al 0.08374 -0.10027 0.00792 1 0.0129
Al7 Al 0.24608 -0.1086 0.05953 1 0.0123
Al8 Al 0.16015 0.10872 0.19667 1 0.0114
F1 F 0.16788 -0.0447 0.0268 1 0.0179
O1 O 0.22897 -0.1626 -0.055 1 0.0125
O2 O 0.06186 0.018 -0.0248 1 0.0225
O3 O 0.22339 0.1355 -0.0337 1 0.0124
O4 O 0.11318 -0.1871 -0.0648 1 0.0149
O5 O 0.22535 0.1317 0.1424 1 0.0149
O6 O 0.09876 -0.1272 0.1326 1 0.0138
O7 O -0.00718 0.1541 0.0104 1 0.0141
O8 O 0.28447 0.0057 0.0636 1 0.0125
O9 O 0.15195 0.1788 -0.2107 1 0.0161
O10 O 0.17882 0.32662 -0.0764 1 0.0117
O11 O 0.18042 -0.3253 -0.0945 1 0.0113
O12 O 0.09318 0.1886 -0.0449 1 0.0189
O13 O 0.16196 0.1915 0.2881 1 0.0149
O14 O 0.21551 -0.1449 0.1634 1 0.0179
O15 O 0.09222 0.1252 0.1172 1 0.0253
O16 O 0.16478 -0.009 0.24 1 0.0163
N1 N 0.5645 0.0736 0.8922 1 0.0363
H1 H 0.603 0.0952 0.9014 1 0.0439
C2 C 0.5183 0.1371 0.8795 1 0.0365
H2 H 0.5273 0.2044 0.8815 1 0.0439
C3 C 0.4587 0.1067 0.8638 1 0.0327
H3 H 0.426 0.1529 0.8536 1 0.0390
C4 C 0.444 0.0056 0.8622 1 0.0190
C5 C 0.4951 -0.0583 0.8771 1 0.0312
H5 H 0.4881 -0.1261 0.8772 1 0.0370
C6 C 0.5548 -0.0236 0.8915 1 0.0358
H6 H 0.5891 -0.067 0.9008 1 0.0431
N7 N 0.3847 -0.0218 0.847 1 0.0334
C8 C 0.3332 0.0453 0.8325 1 0.0443
H8A H 0.3378 0.0925 0.8845 1 0.0529
H8B H 0.2941 0.0098 0.8312 1 0.0529
H8C H 0.3328 0.0791 0.7718 1 0.0529
C9 C 0.3698 -0.126 0.8446 1 0.0521
H9A H 0.3974 -0.1602 0.8075 1 0.0629
H9B H 0.3265 -0.1354 0.8151 1 0.0629
H9C H 0.3756 -0.1515 0.9097 1 0.0629
OW1 O 0.5 -0.2701 0.75 0.6 0.0610
OW2 O 0.5 -0.413 0.75 0.2 0.0529
OW3 O 0.5 0.311 0.75 0.2 0.0680




