data_SSZ-56
_cell_length_a        13.9483
_cell_length_b        19.8958
_cell_length_c        12.3613
_cell_angle_alpha    90.00
_cell_angle_beta     106.676
_cell_angle_gamma    90.00


# setting b
_symmetry_space_group_name_H-M 'P21/m'


_symmetry_space_group_name_H-M 'P21/m'


loop_
_atom_site_label
_atom_site_type_symbol
_atom_site_fract_x
_atom_site_fract_y
_atom_site_fract_z
_atom_site_occupancy
_atom_site_U_iso_or_equiv
Si1 Si 0.4158 0.1753 0.6388 1.00 0.0010
Si2 Si 0.2878 0.1262 0.3975 1.00 0.0010
Si3 Si 0.2768 0.1278 0.7862 1.00 0.0010
Si4 Si 0.4155 0.5638 0.6430 1.00 0.0010
Si5 Si 0.4280 0.1710 0.2637 1.00 0.0010
Si6 Si 0.4332 0.5573 0.2679 1.00 0.0010
Si7 Si 0.4274 0.1725 0.0095 1.00 0.0010
Si8 Si 0.0716 0.1745 0.6427 1.00 0.0010
Si9 Si 0.0799 0.1742 0.3912 1.00 0.0010
Si10 Si 0.2760 0.5309 0.7939 1.00 0.0010
Si11 Si 0.2890 0.5338 0.3992 1.00 0.0010
Si12 Si 0.4270 0.5585 0.0153 1.00 0.0010
Si13 Si 0.0697 0.5589 0.6589 1.00 0.0010
Si14 Si 0.0780 0.5586 0.4011 1.00 0.0010
O1 O 0.5131 0.1273 0.6830 1.00 0.0030
O2 O 0.3570 0.1582 0.5098 1.00 0.0030
O3 O 0.4530 0.2500 0.6560 1.00 0.0030
O4 O 0.3390 0.1575 0.7090 1.00 0.0030
O5 O 0.1781 0.1540 0.3560 1.00 0.0030
O6 O 0.2862 0.0460 0.4100 1.00 0.0030
O7 O 0.3329 0.1440 0.2960 1.00 0.0030
O8 O 0.1658 0.1548 0.7481 1.00 0.0030
O9 O 0.3241 0.1513 0.9156 1.00 0.0030
O10 O 0.2780 0.0486 0.7820 1.00 0.0030
O11 O 0.4766 0.6319 0.6650 1.00 0.0030
O12 O 0.3442 0.5587 0.7210 1.00 0.0030
O13 O 0.4950 0.5040 0.6740 1.00 0.0030
O14 O 0.3561 0.5629 0.5132 1.00 0.0030
O15 O 0.4400 0.2500 0.2920 1.00 0.0030
O16 O 0.4090 0.1582 0.1310 1.00 0.0030
O17 O 0.3301 0.5537 0.2977 1.00 0.0030
O18 O 0.4093 0.5504 0.1359 1.00 0.0030
O19 O 0.4510 0.2500 0.9940 1.00 0.0030
O20 O 0.5192 0.1278 0.9980 1.00 0.0030
O21 O 0.1064 0.1662 0.5279 1.00 0.0030
O22 O 0.9771 0.1280 0.6390 1.00 0.0030
O23 O 0.0420 0.2500 0.6540 1.00 0.0030
O24 O 0.0500 0.2500 0.3530 1.00 0.0030
O25 O 0.9861 0.1271 0.3340 1.00 0.0030
O26 O 0.1662 0.5566 0.7581 1.00 0.0030
O27 O 0.3212 0.5512 0.9235 1.00 0.0030
O28 O 0.1768 0.5602 0.3660 1.00 0.0030
O29 O 0.5000 0.5000 0.0000 1.00 0.0030
O30 O 0.9960 0.4980 0.6670 1.00 0.0030
O31 O 0.0926 0.5511 0.5368 1.00 0.0030
Ow1 O 0.7660 0.2500 0.1980 1.00 0.1874
Ow2 O 0.8560 0.1830 0.8760 1.00 0.1874
Ow3 O 0.0730 0.1220 0.0070 1.00 0.1874




