data_SSZ-57
_cell_length_a        20.091
_cell_length_b        20.091
_cell_length_c        110.056 
_cell_angle_alpha    90.00
_cell_angle_beta     90.00
_cell_angle_gamma    90.00


# setting 
# _symmetry_space_group_name_H-M 'P-4m2'


loop_
_symmetry_equiv_pos_as_xyz
'x,y,z'
'y,-x,-z'
'-y,x,-z'
'-x,-y,z'
'y,x,-z'
'-y,-x,-z'
'-x,y,z'
'x,-y,z'


loop_
_atom_site_label
_atom_site_type_sumbol
_atom_site_fract_x
_atom_site_fract_y
_atom_site_fract_z
_atom_site_occupancy
_atom_site_U_iso_or_equiv
Si1-1 Si 0.2247 0.0758 0.7739 1.0 0.0290
Si1-2 Si 0.2247 0.0758 0.8957 1.0 0.0290
Si1-3 Si 0.2247 0.0758 0.0175 1.0 0.0290
Si1-4 Si 0.2247 0.0758 0.1393 1.0 0.0290
Si11-5 Si 0.9242 0.7247 0.3043 1.0 0.0290
Si11-6 Si 0.9242 0.7247 0.4261 1.0 0.0290
Si11-7 Si 0.9242 0.7247 0.5479 1.0 0.0290
Si11-8 Si 0.9242 0.7247 0.6698 1.0 0.0290
Si12-1 Si 0.7247 0.5758 0.8348 1.0 0.0290
Si12-2 Si 0.7247 0.5758 0.9566 1.0 0.0290
Si12-3 Si 0.7247 0.5758 0.0784 1.0 0.0290
Si12-4 Si 0.7247 0.5758 0.2002 1.0 0.0290
Si13-4 Si 0.4242 0.2247 0.2434 1.0 0.0290
Si13-5 Si 0.4242 0.2247 0.3652 1.0 0.0290
Si13-6 Si 0.4242 0.2247 0.4870 1.0 0.0290
Si13-7 Si 0.4242 0.2247 0.6089 1.0 0.0290
Si13-8 Si 0.4242 0.2247 0.7307 1.0 0.0290
Si2-2 Si 0.1897 0.1897 0.8782 1.0 0.0322
Si2-3 Si 0.1897 0.1897 0.0000 1.0 0.0322
Si21-5 Si 0.8103 0.6897 0.2868 1.0 0.0322
Si21-6 Si 0.8103 0.6897 0.4086 1.0 0.0322
Si21-7 Si 0.8103 0.6897 0.5305 1.0 0.0322
Si21-8 Si 0.8103 0.6897 0.6523 1.0 0.0322
Si22-1 Si 0.6897 0.6897 0.8173 1.0 0.0322
Si22-2 Si 0.6897 0.6897 0.9391 1.0 0.0322
Si3-1 Si 0.2221 0.3105 0.7735 1.0 0.0312
Si3-2 Si 0.2221 0.3105 0.8953 1.0 0.0312
Si3-3 Si 0.2221 0.3105 0.0171 1.0 0.0312
Si3-4 Si 0.2221 0.3105 0.1389 1.0 0.0312
Si31-5 Si 0.6895 0.7221 0.3040 1.0 0.0312
Si31-6 Si 0.6895 0.7221 0.4258 1.0 0.0312
Si31-7 Si 0.6895 0.7221 0.5476 1.0 0.0312
Si31-8 Si 0.6895 0.7221 0.6694 1.0 0.0312
Si32-1 Si 0.7221 0.8105 0.8344 1.0 0.0312
Si32-2 Si 0.7221 0.8105 0.9562 1.0 0.0312
Si32-3 Si 0.7221 0.8105 0.0780 1.0 0.0312
Si32-4 Si 0.7221 0.8105 0.1998 1.0 0.0312
Si33-4 Si 0.1895 0.2221 0.2430 1.0 0.0312
Si33-5 Si 0.1895 0.2221 0.3649 1.0 0.0312
Si33-6 Si 0.1895 0.2221 0.4867 1.0 0.0312
Si33-7 Si 0.1895 0.2221 0.6085 1.0 0.0312
Si33-8 Si 0.1895 0.2221 0.7303 1.0 0.0312
Si4-1 Si 0.3793 0.3116 0.7738 1.0 0.0293
Si4-2 Si 0.3793 0.3116 0.8956 1.0 0.0293
Si4-3 Si 0.3793 0.3116 0.0175 1.0 0.0293
Si4-4 Si 0.3793 0.3116 0.1393 1.0 0.0293
Si41-5 Si 0.6884 0.8793 0.3043 1.0 0.0293
Si41-6 Si 0.6884 0.8793 0.4261 1.0 0.0293
Si41-7 Si 0.6884 0.8793 0.5479 1.0 0.0293
Si41-8 Si 0.6884 0.8793 0.6697 1.0 0.0293
Si42-1 Si 0.8793 0.8116 0.8347 1.0 0.0293
Si42-2 Si 0.8793 0.8116 0.9565 1.0 0.0293
Si42-3 Si 0.8793 0.8116 0.0784 1.0 0.0293
Si42-4 Si 0.8793 0.8116 0.2002 1.0 0.0293
Si43-4 Si 0.1884 0.3793 0.2434 1.0 0.0293
Si43-5 Si 0.1884 0.3793 0.3652 1.0 0.0293
Si43-6 Si 0.1884 0.3793 0.4870 1.0 0.0293
Si43-7 Si 0.1884 0.3793 0.6088 1.0 0.0293
Si43-8 Si 0.1884 0.3793 0.7306 1.0 0.0293
Si5-2 Si 0.4237 0.1922 0.8792 1.0 0.0333
Si5-3 Si 0.4237 0.1922 0.0010 1.0 0.0333
Si5-4 Si 0.4237 0.1922 0.1228 1.0 0.0333
Si51-5 Si 0.8078 0.9237 0.2878 1.0 0.0333
Si51-6 Si 0.8078 0.9237 0.4096 1.0 0.0333
Si51-7 Si 0.8078 0.9237 0.5314 1.0 0.0333
Si51-8 Si 0.8078 0.9237 0.6532 1.0 0.0333
Si52-1 Si 0.9237 0.6922 0.8183 1.0 0.0333
Si52-2 Si 0.9237 0.6922 0.9401 1.0 0.0333
Si52-3 Si 0.9237 0.6922 0.0619 1.0 0.0333
Si52-4 Si 0.9237 0.6922 0.1837 1.0 0.0333
Si53-5 Si 0.3078 0.4237 0.3487 1.0 0.0333
Si53-6 Si 0.3078 0.4237 0.4705 1.0 0.0333
Si53-7 Si 0.3078 0.4237 0.5923 1.0 0.0333
Si53-8 Si 0.3078 0.4237 0.7142 1.0 0.0333
Si6-1 Si 0.3799 0.0749 0.7740 1.0 0.0329
Si6-2 Si 0.3799 0.0749 0.8958 1.0 0.0329
Si6-3 Si 0.3799 0.0749 0.0176 1.0 0.0329
Si6-4 Si 0.3799 0.0749 0.1394 1.0 0.0329
Si61-5 Si 0.9251 0.8799 0.3044 1.0 0.0329
Si61-6 Si 0.9251 0.8799 0.4262 1.0 0.0329
Si61-7 Si 0.9251 0.8799 0.5481 1.0 0.0329
Si61-8 Si 0.9251 0.8799 0.6699 1.0 0.0329
Si62-1 Si 0.8799 0.5749 0.8349 1.0 0.0329
Si62-2 Si 0.8799 0.5749 0.9567 1.0 0.0329
Si62-3 Si 0.8799 0.5749 0.0785 1.0 0.0329
Si62-4 Si 0.8799 0.5749 0.2003 1.0 0.0329
Si63-4 Si 0.4251 0.3799 0.2435 1.0 0.0329
Si63-5 Si 0.4251 0.3799 0.3653 1.0 0.0329
Si63-6 Si 0.4251 0.3799 0.4871 1.0 0.0329
Si63-7 Si 0.4251 0.3799 0.6090 1.0 0.0329
Si63-8 Si 0.4251 0.3799 0.7308 1.0 0.0329
Si7-2 Si 0.4234 0.4234 0.8782 1.0 0.0280
Si7-3 Si 0.4234 0.4234 0.0000 1.0 0.0280
Si71-5 Si 0.5766 0.9234 0.2868 1.0 0.0280
Si71-6 Si 0.5766 0.9234 0.4086 1.0 0.0280
Si71-7 Si 0.5766 0.9234 0.5305 1.0 0.0280
Si71-8 Si 0.5766 0.9234 0.6523 1.0 0.0280
Si72-1 Si 0.9234 0.9234 0.8173 1.0 0.0280
Si72-2 Si 0.9234 0.9234 0.9391 1.0 0.0280
O10-1 O 0.4105 0.0895 0.7868 1.0 0.0738
O10-2 O 0.4105 0.0895 0.9086 1.0 0.0738
O10-3 O 0.4105 0.0895 0.0305 1.0 0.0738
O10-4 O 0.4105 0.0895 0.1523 1.0 0.0738
O101-5 O 0.9105 0.9105 0.3173 1.0 0.0738
O101-6 O 0.9105 0.9105 0.4391 1.0 0.0738
O103-4 O 0.4105 0.4105 0.2564 1.0 0.0738
O103-5 O 0.4105 0.4105 0.3782 1.0 0.0738
O103-6 O 0.4105 0.4105 0.5000 1.0 0.0738
O11-1 O 0.3915 0.0000 0.7699 1.0 0.0458
O11-2 O 0.3915 0.0000 0.8917 1.0 0.0458
O11-3 O 0.3915 0.0000 0.0135 1.0 0.0458
O11-4 O 0.3915 0.0000 0.1354 1.0 0.0458
O111-5 O 0.0000 0.8915 0.3004 1.0 0.0458
O111-6 O 0.0000 0.8915 0.4222 1.0 0.0458
O111-7 O 0.0000 0.8915 0.5440 1.0 0.0458
O111-8 O 0.0000 0.8915 0.6658 1.0 0.0458
O112-1 O 0.8915 0.5000 0.8308 1.0 0.0458
O112-2 O 0.8915 0.5000 0.9526 1.0 0.0458
O112-3 O 0.8915 0.5000 0.0745 1.0 0.0458
O112-4 O 0.8915 0.5000 0.1963 1.0 0.0458
O113-5 O 0.5000 0.3915 0.3613 1.0 0.0458
O113-6 O 0.5000 0.3915 0.4831 1.0 0.0458
O113-7 O 0.5000 0.3915 0.6049 1.0 0.0458
O113-8 O 0.5000 0.3915 0.7267 1.0 0.0458
O12-5 O 0.4111 0.0000 0.2836 1.0 0.1078
O12-6 O 0.4111 0.0000 0.4054 1.0 0.1078
O12-7 O 0.4111 0.0000 0.5272 1.0 0.1078
O12-8 O 0.4111 0.0000 0.6490 1.0 0.1078
O121-1 O 0.0000 0.9111 0.8140 1.0 0.1078
O121-2 O 0.0000 0.9111 0.9358 1.0 0.1078
O121-3 O 0.0000 0.9111 0.0577 1.0 0.1078
O121-4 O 0.0000 0.9111 0.1795 1.0 0.1078
O122-5 O 0.9111 0.5000 0.3445 1.0 0.1078
O122-6 O 0.9111 0.5000 0.4663 1.0 0.1078
O122-7 O 0.9111 0.5000 0.5881 1.0 0.1078
O122-8 O 0.9111 0.5000 0.7099 1.0 0.1078
O123-1 O 0.5000 0.4111 0.8749 1.0 0.1078
O123-2 O 0.5000 0.4111 0.9968 1.0 0.1078
O123-3 O 0.5000 0.4111 0.1186 1.0 0.1078
O123-4 O 0.5000 0.4111 0.2404 1.0 0.1078
O13-1 O 0.1930 0.1210 0.7634 1.0 0.0491
O13-2 O 0.1930 0.1210 0.8852 1.0 0.0491
O13-3 O 0.1930 0.1210 0.0070 1.0 0.0491
O13-4 O 0.1930 0.1210 0.1288 1.0 0.0491
O131-5 O 0.8790 0.6930 0.2938 1.0 0.0491
O131-6 O 0.8790 0.6930 0.4156 1.0 0.0491
O131-7 O 0.8790 0.6930 0.5375 1.0 0.0491
O131-8 O 0.8790 0.6930 0.6593 1.0 0.0491
O132-1 O 0.6930 0.6210 0.8243 1.0 0.0491
O132-2 O 0.6930 0.6210 0.9461 1.0 0.0491
O132-3 O 0.6930 0.6210 0.0679 1.0 0.0491
O132-4 O 0.6930 0.6210 0.1897 1.0 0.0491
O133-5 O 0.3790 0.1930 0.3547 1.0 0.0491
O133-6 O 0.3790 0.1930 0.4765 1.0 0.0491
O133-7 O 0.3790 0.1930 0.5984 1.0 0.0491
O133-8 O 0.3790 0.1930 0.7202 1.0 0.0491
O14-5 O 0.2000 0.1213 0.2759 1.0 0.0538
O14-6 O 0.2000 0.1213 0.3977 1.0 0.0538
O14-7 O 0.2000 0.1213 0.5195 1.0 0.0538
O14-8 O 0.2000 0.1213 0.6413 1.0 0.0538
O141-1 O 0.8787 0.7000 0.8063 1.0 0.0538
O141-2 O 0.8787 0.7000 0.9282 1.0 0.0538
O141-3 O 0.8787 0.7000 0.0500 1.0 0.0538
O141-4 O 0.8787 0.7000 0.1718 1.0 0.0538
O142-5 O 0.7000 0.6213 0.3368 1.0 0.0538
O142-6 O 0.7000 0.6213 0.4586 1.0 0.0538
O142-7 O 0.7000 0.6213 0.5804 1.0 0.0538
O142-8 O 0.7000 0.6213 0.7022 1.0 0.0538
O143-1 O 0.3787 0.2000 0.8673 1.0 0.0538
O143-2 O 0.3787 0.2000 0.9891 1.0 0.0538
O143-3 O 0.3787 0.2000 0.1109 1.0 0.0538
O143-4 O 0.3787 0.2000 0.2327 1.0 0.0538
O15-1 O 0.1947 0.2493 0.7660 1.0 0.0552
O15-2 O 0.1947 0.2493 0.8879 1.0 0.0552
O15-3 O 0.1947 0.2493 0.0097 1.0 0.0552
O15-4 O 0.1947 0.2493 0.1315 1.0 0.0552
O151-5 O 0.7507 0.6947 0.2965 1.0 0.0552
O151-6 O 0.7507 0.6947 0.4183 1.0 0.0552
O151-7 O 0.7507 0.6947 0.5401 1.0 0.0552
O151-8 O 0.7507 0.6947 0.6619 1.0 0.0552
O152-1 O 0.6947 0.7493 0.8269 1.0 0.0552
O152-2 O 0.6947 0.7493 0.9488 1.0 0.0552
O152-3 O 0.6947 0.7493 0.0706 1.0 0.0552
O152-4 O 0.6947 0.7493 0.1924 1.0 0.0552
O153-5 O 0.2507 0.1947 0.3574 1.0 0.0552
O153-6 O 0.2507 0.1947 0.4792 1.0 0.0552
O153-7 O 0.2507 0.1947 0.6010 1.0 0.0552
O153-8 O 0.2507 0.1947 0.7228 1.0 0.0552
O16-1 O 0.4075 0.2509 0.7663 1.0 0.0605
O16-2 O 0.4075 0.2509 0.8882 1.0 0.0605
O16-3 O 0.4075 0.2509 0.0100 1.0 0.0605
O16-4 O 0.4075 0.2509 0.1318 1.0 0.0605
O161-5 O 0.7491 0.9075 0.2968 1.0 0.0605
O161-6 O 0.7491 0.9075 0.4186 1.0 0.0605
O161-7 O 0.7491 0.9075 0.5404 1.0 0.0605
O161-8 O 0.7491 0.9075 0.6622 1.0 0.0605
O162-1 O 0.9075 0.7509 0.8273 1.0 0.0605
O162-2 O 0.9075 0.7509 0.9491 1.0 0.0605
O162-3 O 0.9075 0.7509 0.0709 1.0 0.0605
O162-4 O 0.9075 0.7509 0.1927 1.0 0.0605
O163-5 O 0.2491 0.4075 0.3577 1.0 0.0605
O163-6 O 0.2491 0.4075 0.4795 1.0 0.0605
O163-7 O 0.2491 0.4075 0.6013 1.0 0.0605
O163-8 O 0.2491 0.4075 0.7231 1.0 0.0605
O17-1 O 0.4106 0.1230 0.7637 1.0 0.0610
O17-2 O 0.4106 0.1230 0.8856 1.0 0.0610
O17-3 O 0.4106 0.1230 0.0074 1.0 0.0610
O17-4 O 0.4106 0.1230 0.1292 1.0 0.0610
O171-5 O 0.8770 0.9106 0.2942 1.0 0.0610
O171-6 O 0.8770 0.9106 0.4160 1.0 0.0610
O171-7 O 0.8770 0.9106 0.5378 1.0 0.0610
O171-8 O 0.8770 0.9106 0.6596 1.0 0.0610
O172-1 O 0.9106 0.6230 0.8247 1.0 0.0610
O172-2 O 0.9106 0.6230 0.9465 1.0 0.0610
O172-3 O 0.9106 0.6230 0.0683 1.0 0.0610
O172-4 O 0.9106 0.6230 0.1901 1.0 0.0610
O173-5 O 0.3770 0.4106 0.3551 1.0 0.0610
O173-6 O 0.3770 0.4106 0.4769 1.0 0.0610
O173-7 O 0.3770 0.4106 0.5987 1.0 0.0610
O173-8 O 0.3770 0.4106 0.7205 1.0 0.0610
O18-5 O 0.4008 0.1201 0.2754 1.0 0.0490
O18-6 O 0.4008 0.1201 0.3972 1.0 0.0490
O18-7 O 0.4008 0.1201 0.5190 1.0 0.0490
O18-8 O 0.4008 0.1201 0.6408 1.0 0.0490
O181-1 O 0.8799 0.9008 0.8058 1.0 0.0490
O181-2 O 0.8799 0.9008 0.9276 1.0 0.0490
O181-3 O 0.8799 0.9008 0.0494 1.0 0.0490
O181-4 O 0.8799 0.9008 0.1713 1.0 0.0490
O182-5 O 0.9008 0.6201 0.3363 1.0 0.0490
O182-6 O 0.9008 0.6201 0.4581 1.0 0.0490
O182-7 O 0.9008 0.6201 0.5799 1.0 0.0490
O182-8 O 0.9008 0.6201 0.7017 1.0 0.0490
O183-1 O 0.3799 0.4008 0.8667 1.0 0.0490
O183-2 O 0.3799 0.4008 0.9885 1.0 0.0490
O183-3 O 0.3799 0.4008 0.1103 1.0 0.0490
O183-4 O 0.3799 0.4008 0.2322 1.0 0.0490
O19-1 O 0.2121 0.0000 0.7703 1.0 0.0451
O19-2 O 0.2121 0.0000 0.8922 1.0 0.0451
O19-3 O 0.2121 0.0000 0.0140 1.0 0.0451
O19-4 O 0.2121 0.0000 0.1358 1.0 0.0451
O191-5 O 0.0000 0.7121 0.3008 1.0 0.0451
O191-6 O 0.0000 0.7121 0.4226 1.0 0.0451
O191-7 O 0.0000 0.7121 0.5444 1.0 0.0451
O191-8 O 0.0000 0.7121 0.6662 1.0 0.0451
O192-1 O 0.7121 0.5000 0.8312 1.0 0.0451
O192-2 O 0.7121 0.5000 0.9531 1.0 0.0451
O192-3 O 0.7121 0.5000 0.0749 1.0 0.0451
O192-4 O 0.7121 0.5000 0.1967 1.0 0.0451
O193-5 O 0.5000 0.2121 0.3617 1.0 0.0451
O193-6 O 0.5000 0.2121 0.4835 1.0 0.0451
O193-7 O 0.5000 0.2121 0.6053 1.0 0.0451
O193-8 O 0.5000 0.2121 0.7271 1.0 0.0451
O20-5 O 0.1951 0.0000 0.2835 1.0 0.0427
O20-6 O 0.1951 0.0000 0.4053 1.0 0.0427
O20-7 O 0.1951 0.0000 0.5271 1.0 0.0427
O20-8 O 0.1951 0.0000 0.6489 1.0 0.0427
O201-1 O 0.0000 0.6951 0.8139 1.0 0.0427
O201-2 O 0.0000 0.6951 0.9358 1.0 0.0427
O201-3 O 0.0000 0.6951 0.0576 1.0 0.0427
O201-4 O 0.0000 0.6951 0.1794 1.0 0.0427
O202-5 O 0.6951 0.5000 0.3444 1.0 0.0427
O202-6 O 0.6951 0.5000 0.4662 1.0 0.0427
O202-7 O 0.6951 0.5000 0.5880 1.0 0.0427
O202-8 O 0.6951 0.5000 0.7098 1.0 0.0427
O203-1 O 0.5000 0.1951 0.8749 1.0 0.0427
O203-2 O 0.5000 0.1951 0.9967 1.0 0.0427
O203-3 O 0.5000 0.1951 0.1185 1.0 0.0427
O203-4 O 0.5000 0.1951 0.2403 1.0 0.0427
O3-1 O 0.3012 0.3062 0.7740 1.0 0.0694
O3-2 O 0.3012 0.3062 0.8958 1.0 0.0694
O3-3 O 0.3012 0.3062 0.0177 1.0 0.0694
O3-4 O 0.3012 0.3062 0.1395 1.0 0.0694
O31-5 O 0.6938 0.8012 0.3045 1.0 0.0694
O31-6 O 0.6938 0.8012 0.4263 1.0 0.0694
O31-7 O 0.6938 0.8012 0.5481 1.0 0.0694
O31-8 O 0.6938 0.8012 0.6699 1.0 0.0694
O32-1 O 0.8012 0.8062 0.8349 1.0 0.0694
O32-2 O 0.8012 0.8062 0.9567 1.0 0.0694
O32-3 O 0.8012 0.8062 0.0786 1.0 0.0694
O32-4 O 0.8012 0.8062 0.2004 1.0 0.0694
O33-4 O 0.1938 0.3012 0.2436 1.0 0.0694
O33-5 O 0.1938 0.3012 0.3654 1.0 0.0694
O33-6 O 0.1938 0.3012 0.4872 1.0 0.0694
O33-7 O 0.1938 0.3012 0.6090 1.0 0.0694
O33-8 O 0.1938 0.3012 0.7308 1.0 0.0694
O6-1 O 0.3024 0.0901 0.7750 1.0 0.0584
O6-2 O 0.3024 0.0901 0.8968 1.0 0.0584
O6-3 O 0.3024 0.0901 0.0186 1.0 0.0584
O6-4 O 0.3024 0.0901 0.1404 1.0 0.0584
O61-5 O 0.9099 0.8024 0.3054 1.0 0.0584
O61-6 O 0.9099 0.8024 0.4272 1.0 0.0584
O61-7 O 0.9099 0.8024 0.5490 1.0 0.0584
O61-8 O 0.9099 0.8024 0.6709 1.0 0.0584
O62-1 O 0.8024 0.5901 0.8359 1.0 0.0584
O62-2 O 0.8024 0.5901 0.9577 1.0 0.0584
O62-3 O 0.8024 0.5901 0.0795 1.0 0.0584
O62-4 O 0.8024 0.5901 0.2013 1.0 0.0584
O63-4 O 0.4099 0.3024 0.2445 1.0 0.0584
O63-5 O 0.4099 0.3024 0.3663 1.0 0.0584
O63-6 O 0.4099 0.3024 0.4881 1.0 0.0584
O63-7 O 0.4099 0.3024 0.6100 1.0 0.0584
O63-8 O 0.4099 0.3024 0.7318 1.0 0.0584
O8-1 O 0.1893 0.0945 0.7862 1.0 0.0556
O8-2 O 0.1893 0.0945 0.9080 1.0 0.0556
O8-3 O 0.1893 0.0945 0.0298 1.0 0.0556
O8-4 O 0.1893 0.0945 0.1516 1.0 0.0556
O81-5 O 0.9055 0.6893 0.3167 1.0 0.0556
O81-6 O 0.9055 0.6893 0.4385 1.0 0.0556
O81-7 O 0.9055 0.6893 0.5603 1.0 0.0556
O81-8 O 0.9055 0.6893 0.6821 1.0 0.0556
O82-1 O 0.6893 0.5945 0.8471 1.0 0.0556
O82-2 O 0.6893 0.5945 0.9689 1.0 0.0556
O82-3 O 0.6893 0.5945 0.0907 1.0 0.0556
O82-4 O 0.6893 0.5945 0.2126 1.0 0.0556
O83-4 O 0.4055 0.1893 0.2558 1.0 0.0556
O83-5 O 0.4055 0.1893 0.3776 1.0 0.0556
O83-6 O 0.4055 0.1893 0.4994 1.0 0.0556
O83-7 O 0.4055 0.1893 0.6212 1.0 0.0556
O83-8 O 0.4055 0.1893 0.7430 1.0 0.0556
O9-1 O 0.1922 0.3078 0.7868 1.0 0.0533
O9-2 O 0.1922 0.3078 0.9086 1.0 0.0533
O9-3 O 0.1922 0.3078 0.0305 1.0 0.0533
O9-4 O 0.1922 0.3078 0.1523 1.0 0.0533
O91-5 O 0.6922 0.6922 0.3173 1.0 0.0533
O91-6 O 0.6922 0.6922 0.4391 1.0 0.0533
O93-4 O 0.1922 0.1922 0.2564 1.0 0.0533
O93-5 O 0.1922 0.1922 0.3782 1.0 0.0533
O93-6 O 0.1922 0.1922 0.5000 1.0 0.0533




