data_SSZ-52
_cell_length_a        13.6373
_cell_length_b        13.6373
_cell_length_c        44.7311
_cell_angle_alpha    90.00
_cell_angle_beta     90.00
_cell_angle_gamma    120.00


# setting 
_symmetry_space_group_name_H-M 'R-3m'


loop_
_symmetry_equiv_pos_as_xyz
'x,y,z'
'-y,x-y,z'
'-x+y,-x,z'
'x-y,-y,-z'
'-x,-x+y,-z'
'y,x,-z'
'-x,-y,-z'
'y,-x+y,-z'
'x-y,x,-z'
'-x+y,y,z'
'x,x-y,z'
'-y,-x,z'
'x+1/3,y+2/3,z+2/3'
'-y+1/3,x-y+2/3,z+2/3'
'-x+y+1/3,-x+2/3,z+2/3'
'x-y+1/3,-y+2/3,-z+2/3'
'-x+1/3,-x+y+2/3,-z+2/3'
'y+1/3,x+2/3,-z+2/3'
'-x+1/3,-y+2/3,-z+2/3'
'y+1/3,-x+y+2/3,-z+2/3'
'x-y+1/3,x+2/3,-z+2/3'
'-x+y+1/3,y+2/3,z+2/3'
'x+1/3,x-y+2/3,z+2/3'
'-y+1/3,-x+2/3,z+2/3'
'x+2/3,y+1/3,z+1/3'
'-y+2/3,x-y+1/3,z+1/3'
'-x+y+2/3,-x+1/3,z+1/3'
'x-y+2/3,-y+1/3,-z+1/3'
'-x+2/3,-x+y+1/3,-z+1/3'
'y+2/3,x+1/3,-z+1/3'
'-x+2/3,-y+1/3,-z+1/3'
'y+2/3,-x+y+1/3,-z+1/3'
'x-y+2/3,x+1/3,-z+1/3'
'-x+y+2/3,y+1/3,z+1/3'
'x+2/3,x-y+1/3,z+1/3'
'-y+2/3,-x+1/3,z+1/3'


loop_
_atom_site_label
_atom_site_type_symbol
_atom_site_fract_x
_atom_site_fract_y
_atom_site_fract_z
_atom_site_occupancy
_atom_site_U_iso_or_equiv
Si1 Si 0.9985 0.2282 0.2568 1.000 0.0080
Si2 Si 0.9970 0.2261 0.1870 1.000 0.0080
Si3 Si 0.0006 0.2282 0.0347 1.000 0.0080
O1 O 0.9894 0.2525 0.2217 1.000 0.0050
O2 O 0.1228 0.2456 0.2654 1.000 0.0050
O3 O 0.9036 0.0964 0.2656 1.000 0.0050
O4 O 0.9792 0.3151 0.2769 1.000 0.0050
O5 O 0.9031 0.0969 0.1778 1.000 0.0050
O6 O 0.9834 0.3168 0.1667 1.000 0.0050
O7 O 0.1221 0.2442 0.1775 1.000 0.0050
O8 O 0 0.2590 0 1.000 0.0050
O9 O 0.1201 0.2401 0.0449 1.000 0.0050
O10 O 0.9025 0.0975 0.0420 1.000 0.0050
C1 C 0.7556 0.3778 0.7754 0.333 0.0300
C2 C 0.6291 0.3468 0.7806 0.167 0.0300
C3 C 0.6156 0.4511 0.7863 0.167 0.0300
C4 C 0.8282 0.4403 0.8033 0.167 0.0300
C5 C 0.7515 0.2645 0.7722 0.167 0.0300
C6 C 0.6928 0.2036 0.7425 0.167 0.0300
C7 C 0.6091 0.2393 0.7293 0.167 0.0300
C8 C 0.5507 0.2754 0.7541 0.333 0.0300
N9 N 0.6667 0.3333 0.7067 1.000 0.0300
C10 C 0.5786 0.3345 0.6861 0.167 0.0300
C11 C 0.4974 0.2173 0.6725 0.167 0.0300
C12 C 0.7549 0.3231 0.6887 0.167 0.0300
C13 C 0.6990 0.2331 0.6638 0.167 0.0300
C14 C 0.8115 0.4518 0.7469 0.167 0.0300
C15 C 0.7211 0.4422 0.7240 0.167 0.0300
H21 H 0.603 0.302 0.7982 0.167 0.0300
H31 H 0.597 0.452 0.8067 0.167 0.0300
H32 H 0.685 0.519 0.7818 0.167 0.0300
H33 H 0.555 0.445 0.7741 0.333 0.0300
H41 H 0.794 0.397 0.8208 0.333 0.0300
H42 H 0.903 0.452 0.8009 0.167 0.0300
H43 H 0.833 0.512 0.8051 0.167 0.0300
H51 H 0.827 0.277 0.7724 0.167 0.0300
H52 H 0.711 0.217 0.7886 0.167 0.0300
H61 H 0.750 0.219 0.7280 0.167 0.0300
H62 H 0.651 0.124 0.7462 0.167 0.0300
H71 H 0.551 0.175 0.7191 0.167 0.0300
H81 H 0.522 0.318 0.7448 0.167 0.0300
H82 H 0.489 0.208 0.7621 0.167 0.0300
H101 H 0.535 0.359 0.6970 0.167 0.0300
H102 H 0.615 0.385 0.6701 0.333 0.0300
H111 H 0.446 0.169 0.6871 0.167 0.0300
H112 H 0.457 0.229 0.6569 0.333 0.0300
H113 H 0.539 0.185 0.6646 0.167 0.0300
H121 H 0.805 0.394 0.6797 0.167 0.0300
H122 H 0.797 0.302 0.7015 0.167 0.0300
H131 H 0.735 0.265 0.6452 0.167 0.0300
H132 H 0.709 0.171 0.6684 0.167 0.0300
H133 H 0.621 0.209 0.6626 0.167 0.0300
H141 H 0.856 0.529 0.7529 0.167 0.0300
H142 H 0.860 0.430 0.7376 0.167 0.0300
H151 H 0.663 0.445 0.7350 0.167 0.0300
H152 H 0.752 0.504 0.7105 0.167 0.0300
Na1 Na 0 0 0.0777 0.75 0.0300
Na2 Na 0 0 0.1488 0.25 0.0300
Ow1 O 0.0778 0.1556 0.1174 1.000 0.0300




