data_SIZ-7
_cell_length_a        10.2959
_cell_length_b        14.3715
_cell_length_c        28.599
_cell_angle_alpha    90.0
_cell_angle_beta     91.094
_cell_angle_gamma    90.0


# setting 
_symmetry_space_group_name_H-M 'C2/c'


loop_
_symmetry_equiv_pos_as_xyz
'x,y,z'
'-x,y,-z+1/2'
'-x,-y,-z'
'x,-y,z-1/2'
'x+1/2,y+1/2,z'
'-x+1/2,y+1/2,-z+1/2'
'-x+1/2,-y+1/2,-z'
'x+1/2,-y+1/2,z-1/2'


loop_
_atom_site_label
_atom_site_type_symbol
_atom_site_fract_x
_atom_site_fract_y
_atom_site_fract_z
_atom_site_occupancy
_atom_site_U_iso_or_equiv
Co1 Co 0.14313 0.14156 0.36813 0.75 0.0253
Al1 Al 0.14313 0.14156 0.36813 0.25 0.0253
Co2 Co 0.6367 0.02467 0.30798 0.35 0.0175
Al2 Al 0.6367 0.02467 0.30798 0.65 0.0175
Co3 Co -0.14425 -0.00331 0.4415 0.35 0.0175
Al3 Al -0.14425 -0.00331 0.4415 0.65 0.0175
Co4 Co 0.35305 -0.12646 0.38162 0.15 0.0164
Al4 Al 0.35305 -0.12646 0.38162 0.85 0.0164
P5 P 0.33433 0.02713 0.30251 1 0.0221
P6 P 0.16042 -0.0142 0.44591 1 0.0239
P7 P -0.16274 0.15241 0.36553 1 0.0231
P8 P 0.655 -0.13356 0.38365 1 0.0240
O1 O 0.469 0.0665 0.31158 1 0.0335
O2 O 0.5176 -0.1176 0.40153 1 0.0434
O3 O 0.0218 -0.0449 0.43524 1 0.0414
O4 O 0.316 -0.0628 0.32936 1 0.0393
O5 O 0.1875 0.0794 0.42384 1 0.0407
O6 O -0.0299 0.1314 0.34604 1 0.0417
O7 O 0.6861 0.0029 0.24868 1 0.0680
O8 O 0.2521 -0.0874 0.42755 1 0.0598
O9 O -0.1769 0.1074 0.41293 1 0.0453
O10 O 0.6666 -0.0868 0.3365 1 0.0442
O11 O 0.2317 0.0967 0.31535 1 0.0617
O12 O 0.3146 -0.2438 0.3693 1 0.0687
O13 O -0.1861 0.0096 0.50182 1 0.0654
O14 O 0.1847 0.2654 0.3793 1 0.0777
O15 O 0.7328 0.1175 0.33236 1 0.0709
O16 O -0.2492 -0.0936 0.41838 1 0.0707




