data_SU-15
_cell_length_a        20.578
_cell_length_b        12.401
_cell_length_c        10.457
_cell_angle_alpha    90.00
_cell_angle_beta     104.58
_cell_angle_gamma    90.00


# setting 
_symmetry_space_group_name_H-M 'C2/c'


loop_
_symmetry_equiv_pos_as_xyz
'x,y,z'
'-x,y,-z+1/2'
'-x,-y,-z'
'x,-y,z-1/2'
'x+1/2,y+1/2,z'
'-x+1/2,y+1/2,-z+1/2'
'-x+1/2,-y+1/2,-z'
'x+1/2,-y+1/2,z-1/2'


loop_
_atom_site_label
_atom_site_type_symbol
_atom_site_fract_x
_atom_site_fract_y
_atom_site_fract_z
_atom_site_occupancy
_atom_site_U_iso_or_equiv
Ge1 Ge 0.30607 0.09677 0.18033 0.7331 0.0096
Ge2 Ge 0.30373 -0.09227 0.37763 0.7511 0.0103
Ge3 Ge 0.34845 0.33902 0.1978 0.6401 0.0106
Ge4 Ge 0.34438 0.33428 -0.10102 0.5931 0.0109
Ge5 Ge 0.45298 0.49325 -0.1492 0.2201 0.0094
Si1 Si 0.30607 0.09677 0.18033 0.2672 0.0096
Si2 Si 0.30373 -0.09227 0.37763 0.2492 0.0103
Si3 Si 0.34845 0.33902 0.1978 0.3602 0.0106
Si4 Si 0.34438 0.33428 -0.10102 0.4072 0.0109
Si5 Si 0.45298 0.49325 -0.1492 0.7802 0.0094
O11 O 0.34107 0.0015 0.299 1 0.0218
O10 O 0.5 0.4736 -0.25 1 0.0490
O9 O 0.3071 0.0396 0.0316 1 0.0239
O8 O 0.4052 0.3863 -0.1674 1 0.0236
O7 O 0.5 0.5 0 1 0.0470
O6 O 0.3636 0.3849 0.0546 1 0.0306
O5 O 0.3597 0.204 0.22 1 0.0227
O4 O 0.4102 0.3945 0.3213 1 0.0276
O3 O 0.2279 0.1222 0.2033 1 0.0258
O2 O 0.2249 -0.1157 0.2774 1 0.0239
O1 O 0.3578 -0.1998 0.3875 1 0.0249
F1 F 0.25 0.25 0 1 0.0810
N1 N 0.4668 0.8025 0.235 0.25 0.0030
N1' N 0.4697 0.8606 0.1938 0.25 0.0050
C1 C 0.3676 0.7727 0.054 0.5 0.0500
C2 C 0.432 0.8324 0.095 0.5 0.0360
C3 C 0.4721 0.8258 0.01 0.5 0.0540




