data_SU-16
_cell_length_a        6.936
_cell_length_b        10.493
_cell_length_c        20.448
_cell_angle_alpha    90.0
_cell_angle_beta     90.09
_cell_angle_gamma    90.0


# setting 
_symmetry_space_group_name_H-M 'P121/c1'


loop_
_symmetry_equiv_pos_as_xyz
'x,y,z'
'-x,y+1/2,-z+1/2'
'-x,-y,-z'
'x,-y-1/2,z-1/2'


loop_
_atom_site_label
_atom_site_type_symbol
_atom_site_fract_x
_atom_site_fract_y
_atom_site_fract_z
_atom_site_occupancy
_atom_site_U_iso_or_equiv
Ge1 Ge 0.44769 0.92488 0.20378 1 0.0123
Ge2 Ge 0.55025 1.22809 0.1728 1 0.0119
Ge3 Ge 0.74819 0.91223 0.08802 1 0.0147
Ge4 Ge 0.24464 1.15354 0.06335 1 0.0132
B1 B 0.1081 0.9612 0.1391 1 0.0110
B2 B -0.1137 1.1496 0.1183 1 0.0120
O1 O 0.3987 1.2552 0.10543 1 0.0176
O2 O 0.2047 0.8949 0.19389 1 0.0163
O3 O 0.4995 1.087 0.21617 1 0.0181
O4 O 0.7309 1.0752 0.08322 1 0.0171
O5 O 0.0102 1.2084 0.06705 1 0.0167
O6 O 0.5948 0.8484 0.14707 1 0.0193
O7 O -0.0001 1.0703 0.16222 1 0.0141
O8 O 0.7894 1.2503 0.15503 1 0.0161
O9 O 0.5231 0.8528 0.27676 1 0.0194
O10 O 0.9799 0.8662 0.10641 1 0.0172
O11 O 0.2616 1.0002 0.09239 1 0.0162
O12 O 0.3278 1.1651 -0.01695 1 0.0204
N1 N -0.0725 0.6863 0.2192 1 0.0250
H21A H -0.0451 0.6537 0.2583 1 0.0300
H21B H -0.1804 0.732 0.2218 1 0.0300
H21C H 0.0239 0.7362 0.2063 1 0.0300
N2 N 0.2324 0.5697 0.1353 1 0.0545
H21 H 0.3212 0.6164 0.1523 1 0.0650
N3 N 0.2743 0.7516 0.0312 1 0.0242
H31A H 0.1478 0.7659 0.0317 1 0.0290
H31B H 0.3276 0.7946 -0.0017 1 0.0290
H31C H 0.3257 0.7772 0.0689 1 0.0290
C1 C -0.0992 0.5815 0.1714 1 0.0306
H1A H -0.1294 0.6167 0.1288 1 0.0370
H1B H -0.206 0.528 0.1849 1 0.0370
C2 C 0.0836 0.5019 0.1671 1 0.0363
H2A H 0.1255 0.4788 0.2108 1 0.0439
H2B H 0.0568 0.424 0.1433 1 0.0439
C3 C 0.1941 0.5376 0.0592 0.675 0.0360
H3A H 0.2242 0.449 0.0504 0.675 0.0439
H3B H 0.0597 0.5522 0.0484 0.675 0.0439
C3' C 0.372 0.56 0.0907 0.325 0.0339
H3A' H 0.407 0.471 0.0855 0.325 0.0400
H3B' H 0.4854 0.6054 0.1061 0.325 0.0400
C4 C 0.3098 0.6156 0.0225 1 0.0491
H4A H 0.2917 0.5945 -0.0233 1 0.0590
H4B H 0.4432 0.598 0.0334 1 0.0590




