data_SSZ-65
_cell_length_a        16.8009
_cell_length_b        16.8009
_cell_length_c        12.6154 
_cell_angle_alpha    90.00
_cell_angle_beta     90.00
_cell_angle_gamma    120.00


# setting 
# _symmetry_space_group_name_H-M 'P6/m'


loop_
_symmetry_equiv_pos_as_xyz
'x,y,z'
'x-y,x,z'
'y,-x+y,z'
'-y,x-y,z'
'-x+y,-x,z'
'-x,-y,z'
'-x,-y,-z'
'-x+y,-x,-z'
'-y,x-y,-z'
'y,-x+y,-z'
'x-y,x,-z'
'x,y,-z'


loop_
_atom_site_label
_atom_site_type_sumbol
_atom_site_fract_x
_atom_site_fract_y
_atom_site_fract_z
_atom_site_occupancy
_atom_site_U_iso_or_equiv
Si1 Si 0.3017 -0.0029 0.2005 1.0 0.0009
Si2 Si 0.1826 -0.0079 0.3786 1.0 0.0009
Si3 Si 0.1791 -0.0118 0 1.0 0.0009
Si4 Si 0.4991 0.3539 0.1264 1.0 0.0009
Si5 Si 0.4785 0.1606 0.1241 1.0 0.0009
O1 O 0.3848 0.0967 0.1852 1.0 0.0009
O2 O 0.3385 0.9271 0.1868 1.0 0.0009
O3 O 0.2542 -0.0157 0.3083 1.0 0.0009
O4 O 0.2314 -0.0193 0.1004 1.0 0.0009
O5 O 0.1782 0.0840 0.3564 1.0 0.0009
O6 O 0.2100 -0.0149 0.5 1.0 0.0009
O7 O 0.1715 0.0789 0 1.0 0.0009
O8 O 0.4972 0.3657 0 1.0 0.0009
O9 O 0.4592 0.1421 0 1.0 0.0009
O10 O 0.5589 0.1456 0.1694 1.0 0.0009
O11 O 0.5053 0.2645 0.1516 1.0 0.0009




