data_SSZ-61 (as-synthesized)
_cell_length_a        19.7619
_cell_length_b        10.0749
_cell_length_c        25.213
_cell_angle_alpha    90.00
_cell_angle_beta     106.9
_cell_angle_gamma    90.00


# setting 
_symmetry_space_group_name_H-M 'P21/c'


loop_
_symmetry_equiv_pos_as_xyz
'x,y,z'
'-x,y+1/2,-z+1/2'
'-x,-y,-z'
'x,-y-1/2,z-1/2'


loop_
_atom_site_label
_atom_site_type_symbol
_atom_site_fract_x
_atom_site_fract_y
_atom_site_fract_z
_atom_site_occupancy
_atom_site_U_iso_or_equiv
Si1 Si 0.0620 0.1396 0.1130 1.000 0.0228
Si2 Si 0.1501 0.1057 0.0373 1.000 0.0228
Si3 Si 0.3036 0.1398 0.0283 1.000 0.0228
Si5 Si 0.0507 0.3900 0.1815 1.000 0.0228
Si6 Si 0.0606 0.6441 0.1125 1.000 0.0228
Si7 Si 0.1506 0.6100 0.0369 1.000 0.0228
Si8 Si 0.3064 0.6414 0.0316 1.000 0.0228
Si10 Si 0.1097 0.3639 0.3046 1.000 0.0228
Si11 Si 0.1672 0.1156 0.3718 1.000 0.0228
Si12 Si 0.0906 0.1413 0.4658 1.000 0.0228
Si13 Si 0.3126 0.1089 0.4589 1.000 0.0228
Si15 Si 0.1692 0.6180 0.3697 1.000 0.0228
Si16 Si 0.0909 0.6410 0.4623 1.000 0.0228
Si17 Si 0.3129 0.6119 0.4584 1.000 0.0228
Si19 Si 0.1065 0.8619 0.3061 1.000 0.0228
Si20 Si 0.0473 0.8956 0.1839 1.000 0.0228
O1 O 0.0537 0.0414 0.1605 1.000 0.0532
O2 O 0.0058 0.6273 0.4403 1.000 0.0532
O3 O 0.0690 0.2882 0.1378 1.000 0.0532
O4 O 0.1316 0.1060 0.0955 1.000 0.0532
O5 O 0.1235 0.9697 0.0066 1.000 0.0532
O6 O 0.1096 0.2793 0.4975 1.000 0.0532
O7 O 0.2352 0.1183 0.0485 1.000 0.0532
O9 O 0.3037 0.2867 0.0044 1.000 0.0532
O10 O 0.3065 0.4629 0.4799 1.000 0.0532
O14 O 0.1071 0.3792 0.2412 1.000 0.0532
O15 O 0.0277 0.8600 0.3131 1.000 0.0532
O16 O 0.0547 0.5376 0.1583 1.000 0.0532
O17 O 0.1310 0.6231 0.0945 1.000 0.0532
O18 O 0.0631 0.7898 0.1401 1.000 0.0532
O19 O 0.0059 0.1283 0.4415 1.000 0.0532
O20 O 0.1228 0.4703 0.0102 1.000 0.0532
O21 O 0.1116 0.7806 0.4929 1.000 0.0532
O22 O 0.2358 0.6200 0.0490 1.000 0.0532
O23 O 0.3105 0.9617 0.4837 1.000 0.0532
O25 O 0.3082 0.7877 0.0069 1.000 0.0532
O28 O 0.1422 0.2224 0.3248 1.000 0.0532
O29 O 0.1589 0.4749 0.3415 1.000 0.0532
O30 O 0.0310 0.3733 0.3104 1.000 0.0532
O31 O 0.1239 0.1337 0.4153 1.000 0.0532
O32 O 0.1520 0.9730 0.3446 1.000 0.0532
O33 O 0.2504 0.1289 0.4026 1.000 0.0532
O37 O 0.1442 0.7240 0.3231 1.000 0.0532
O38 O 0.2510 0.6405 0.4030 1.000 0.0532
O39 O 0.1222 0.6299 0.4110 1.000 0.0532
O42 O 0.1035 0.8851 0.2432 1.000 0.0532
Si4A Si 0.4415 0.0316 0.1173 0.500 0.0228
Si9A Si 0.4437 0.7101 0.1130 0.500 0.0228
Si14A Si 0.4704 0.1374 0.4710 0.500 0.0228
Si18A Si 0.4717 0.6150 0.4562 0.500 0.0228
O8A O 0.3731 0.1114 0.0795 0.500 0.0532
O11A O 0.4500 0.0710 0.1806 0.500 0.0532
O12A O 0.4899 0.5815 0.3994 0.500 0.0532
O13A O 0.4326 0.8709 0.1100 0.500 0.0532
O24A O 0.3721 0.6302 0.0852 0.500 0.0532
O26A O 0.4988 0.6682 0.0803 0.500 0.0532
O27A O 0.4708 0.6619 0.1764 0.500 0.0532
O34A O 0.3864 0.1305 0.4470 0.500 0.0532
O35A O 0.5 0 0.5 0.500 0.0532
O36A O 0.4909 0.2493 0.0175 0.500 0.0532
O40A O 0.3873 0.6295 0.4450 0.500 0.0532
O41A O 0.5 0.5 0.5 0.500 0.0532
Si4B Si 0.4450 0.5323 0.1166 0.500 0.0228
Si9B Si 0.4409 1.2117 0.1112 0.500 0.0228
Si14B Si 0.4703 0.6337 0.4678 0.500 0.0228
Si18B Si 0.4713 1.1179 0.4589 0.500 0.0228
O8B O 0.3740 0.6151 0.0850 0.500 0.0532
O11B O 0.4642 0.5601 0.1817 0.500 0.0532
O12B O 0.4908 1.0895 0.4031 0.500 0.0532
O13B O 0.4341 1.3730 0.1046 0.500 0.0532
O24B O 0.3709 1.1320 0.0799 0.500 0.0532
O26B O 0.5012 1.1573 0.0856 0.500 0.0532
O27B O 0.4555 1.1741 0.1751 0.500 0.0532
O34B O 0.3864 0.6276 0.4458 0.500 0.0532
O35B O 0.5 0.5 0.5 0.500 0.0532
O36B O 0.4921 0.7494 0.0121 0.500 0.0532
O40B O 0.3869 1.1308 0.4464 0.500 0.0532
O41B O 0.5 1 0.5 0.500 0.0532
C1A C 0.3842 0.5792 0.2680 0.500 0.0380
C2A C 0.3593 0.4377 0.2520 0.500 0.0380
C3A C 0.3698 0.3957 0.1961 0.500 0.0380
C4A C 0.2978 0.3431 0.1595 0.500 0.0380
C5A C 0.2419 0.4046 0.1845 0.500 0.0380
C6A C 0.2800 0.4457 0.2446 0.500 0.0380
C7A C 0.2651 0.5917 0.2580 0.500 0.0380
C8A C 0.3889 0.3425 0.2998 0.500 0.0380
C9A C 0.3609 0.2002 0.2853 0.500 0.0380
C10A C 0.2919 0.2065 0.2766 0.500 0.0380
C11A C 0.2769 0.3493 0.2907 0.500 0.0380
C12A C 0.3448 0.3760 0.3382 0.500 0.0380
C13A C 0.3129 0.7320 0.1984 0.500 0.0380
C14A C 0.3272 0.8818 0.1980 0.500 0.0380
C15A C 0.3426 0.7860 0.2971 0.500 0.0380
C16A C 0.4045 0.8759 0.2937 0.500 0.0380
N1A N 0.3256 0.6757 0.2552 0.500 0.0380
H1Aa H 0.4091 0.5891 0.3059 0.500 0.0456
H1Ab H 0.4142 0.6065 0.2470 0.500 0.0456
H3Aa H 0.3860 0.4681 0.1797 0.500 0.0456
H3Ab H 0.4038 0.3273 0.2017 0.500 0.0456
H4Aa H 0.2902 0.3731 0.1230 0.500 0.0456
H4Ab H 0.2961 0.2498 0.1592 0.500 0.0456
H5Aa H 0.2190 0.4761 0.1625 0.500 0.0456
H5Ab H 0.2086 0.3380 0.1849 0.500 0.0456
H7Aa H 0.2229 0.6216 0.2326 0.500 0.0456
H7Ab H 0.2608 0.5932 0.2942 0.500 0.0456
H8A H 0.4382 0.3470 0.3153 0.500 0.0456
H9A H 0.3872 0.1207 0.2898 0.500 0.0456
H10A H 0.2591 0.1381 0.2627 0.500 0.0456
H11Aa H 0.2361 0.3620 0.3020 0.500 0.0456
H12Aa H 0.3509 0.3215 0.3695 0.500 0.0456
H12Ab H 0.3509 0.4647 0.3501 0.500 0.0456
H13Aa H 0.2639 0.7232 0.1815 0.500 0.0456
H13Ab H 0.3397 0.6855 0.1789 0.500 0.0456
H14Aa H 0.3201 0.9070 0.1607 0.500 0.0570
H14Ab H 0.2967 0.9259 0.2146 0.500 0.0570
H14Ac H 0.3752 0.8903 0.2195 0.500 0.0570
H15Aa H 0.3539 0.7468 0.3327 0.500 0.0456
H15Ab H 0.3015 0.8380 0.2919 0.500 0.0456
H16Aa H 0.4044 0.8799 0.2562 0.500 0.0570
H16Ab H 0.3983 0.9592 0.3082 0.500 0.0570
H16Ac H 0.4466 0.8351 0.3150 0.500 0.0570
C1B C 0.3842 0.8292 0.7680 0.500 0.0380
C2B C 0.3593 0.6877 0.7520 0.500 0.0380
C3B C 0.3698 0.6457 0.6961 0.500 0.0380
C4B C 0.2978 0.5931 0.6595 0.500 0.0380
C5B C 0.2419 0.6546 0.6845 0.500 0.0380
C6B C 0.2800 0.6957 0.7446 0.500 0.0380
C7B C 0.2651 0.8417 0.7580 0.500 0.0380
C8B C 0.3889 0.5925 0.7998 0.500 0.0380
C9B C 0.3609 0.4502 0.7853 0.500 0.0380
C10B C 0.2919 0.4565 0.7766 0.500 0.0380
C11B C 0.2769 0.5993 0.7907 0.500 0.0380
C12B C 0.3448 0.6260 0.8382 0.500 0.0380
C13B C 0.3129 0.9820 0.6984 0.500 0.0380
C14B C 0.3272 1.1318 0.6980 0.500 0.0380
C15B C 0.3426 1.0360 0.7971 0.500 0.0380
C16B C 0.4045 1.1259 0.7937 0.500 0.0380
N1B N 0.3256 0.9257 0.7552 0.500 0.0380
H1Ba H 0.4091 0.8391 0.8059 0.500 0.0456
H1Bb H 0.4142 0.8565 0.7470 0.500 0.0456
H3Ba H 0.3860 0.7181 0.6797 0.500 0.0456
H3Bb H 0.4038 0.5773 0.7017 0.500 0.0456
H4Ba H 0.2902 0.6231 0.6230 0.500 0.0456
H4Bb H 0.2961 0.4998 0.6592 0.500 0.0456
H5Ba H 0.2190 0.7261 0.6625 0.500 0.0456
H5Bb H 0.2086 0.5880 0.6849 0.500 0.0456
H7Ba H 0.2229 0.8716 0.7326 0.500 0.0456
H7Bb H 0.2608 0.8432 0.7942 0.500 0.0456
H8B H 0.4382 0.5970 0.8153 0.500 0.0456
H9B H 0.3872 0.3707 0.7898 0.500 0.0456
H10B H 0.2591 0.3881 0.7627 0.500 0.0456
H11Ba H 0.2361 0.6120 0.8019 0.500 0.0456
H12Ba H 0.3509 0.5715 0.8695 0.500 0.0456
H12Bb H 0.3509 0.7147 0.8501 0.500 0.0456
H13Ba H 0.2639 0.9732 0.6815 0.500 0.0456
H13Bb H 0.3397 0.9355 0.6789 0.500 0.0456
H14Ba H 0.3201 1.1570 0.6607 0.500 0.0570
H14Bb H 0.2967 1.1759 0.7146 0.500 0.0570
H14Bc H 0.3752 1.1403 0.7195 0.500 0.0570
H15Ba H 0.3539 0.9968 0.8327 0.500 0.0456
H15Bb H 0.3015 1.0880 0.7919 0.500 0.0456
H16Ba H 0.4044 1.1299 0.7562 0.500 0.0570
H16Bb H 0.3983 1.2092 0.8082 0.500 0.0570
H16Bc H 0.4466 1.0851 0.8150 0.500 0.0570




