data_SSZ-60
_cell_length_a        21.951
_cell_length_b        13.698
_cell_length_c        5.012
_cell_angle_alpha    90.0
_cell_angle_beta     90.0
_cell_angle_gamma    90.0


# setting 
# _symmetry_space_group_name_H-M 'Pmn21'


loop_
_symmetry_equiv_pos_as_xyz
'x,y,z'
'-x+1/2,-y,z+1/2'
'-x,y,z'
'x+1/2,-y,z+1/2'


loop_
_atom_site_label
_atom_site_type_sumbol
_atom_site_fract_x
_atom_site_fract_y
_atom_site_fract_z
_atom_site_occupancy
_atom_site_U_iso_or_equiv
Si1 Si 0 0.1398 -0.004 1.0 0.0309
Si2 Si -0.1295 0.2195 -0.038 1.0 0.0309
Si3 Si -0.197 0.4046 -0.931 1.0 0.0309
Si4 Si 0.6276 0.0805 -0.02 1.0 0.0309
Si5 Si 0 0.009 -0.505 1.0 0.0309
Si6 Si 0.72 0.3817 -0.432 1.0 0.0309
Si7 Si 0.6756 0.1768 -0.522 1.0 0.0309
Si8 Si -0.1845 0.1251 -0.536 1.0 0.0309
O1 O -0.2255 0.387 -0.64 1.0 0.0110
O2 O 0.6315 0.12 -0.324 1.0 0.0110
O3 O 0.6763 0.2915 -0.457 1.0 0.0110
O4 O 0.6778 0.4811 -0.459 1.0 0.0110
O5 O 0.7437 0.138 -0.497 1.0 0.0110
O6 O 0 0.098 -0.304 1.0 0.0110
O7 O -0.1425 0.3351 -0.991 1.0 0.0110
O8 O -0.0587 0.208 -0.978 1.0 0.0110
O9 O 0 0.052 -0.803 1.0 0.0110
O10 O -0.1683 0.156 -0.839 1.0 0.0110
O11 O -0.1678 0.014 -0.49 1.0 0.0110
O12 O 0.5584 0.058 -0.96 1.0 0.0110
O13 O -0.1468 0.194 -0.34 1.0 0.0110
O14 O 0.7488 0.385 -0.14 1.0 0.0110
O15 O 0.6519 0.1633 -0.823 1.0 0.0110




