data_SSZ-35_Calcined
_cell_length_a        11.4114
_cell_length_b        11.5268
_cell_length_c        7.3770
_cell_angle_alpha    94.661
_cell_angle_beta     96.206
_cell_angle_gamma    104.892


# setting 
# _symmetry_space_group_name_H-M 'P-1'


loop_
_symmetry_equiv_pos_as_xyz
'x,y,z'
'-x,-y,-z'


loop_
_atom_site_label
_atom_site_type_sumbol
_atom_site_fract_x
_atom_site_fract_y
_atom_site_fract_z
_atom_site_occupancy
_atom_site_U_iso_or_equiv
Si1 Si 0.36019 0.35630 0.61106 1.0 0.0132
Si2 Si 0.41221 0.42852 0.21918 1.0 0.0189
Si3 Si 0.14209 0.64205 0.40966 1.0 0.0218
Si4 Si 0.36181 0.85678 0.57148 1.0 0.0261
Si5 Si 0.13396 0.44151 0.67151 1.0 0.0193
Si6 Si 0.23859 0.56731 0.04636 1.0 0.0224
Si7 Si 0.46001 0.75796 0.92351 1.0 0.0293
Si8 Si 0.55968 0.87468 0.30376 1.0 0.0223
O1 O 0.36502 0.37709 0.40067 1.0 0.0237
O2 O 0.23168 0.36461 0.67114 1.0 0.0113
O3 O 0.47018 0.45770 0.73017 1.0 0.0399
O4 O 0.37472 0.22510 0.64375 1.0 0.0262
O5 O 0.30673 0.47043 0.10734 1.0 0.0329
O6 O 0.44890 0.32523 0.09908 1.0 0.0315
O7 O 0.22725 0.77005 0.50790 1.0 0.0233
O8 O 0.16588 0.54074 0.53230 1.0 0.0255
O9 O 0.17639 0.61558 0.20899 1.0 0.0312
O10 O 0.00178 0.64477 0.39598 1.0 0.0143
O11 O 0.43707 0.85788 0.39827 1.0 0.0381
O12 O 0.35217 0.99191 0.62479 1.0 0.0204
O13 O 0.43055 0.81119 0.73707 1.0 0.0293
O14 O 0.13629 0.50548 0.87315 1.0 0.0152
O15 O 0.33382 0.67945 0.98040 1.0 0.0313
O16 O 0.52218 0.86584 0.08546 1.0 0.0232




