data_Stilbite
_cell_length_a         13.64
_cell_length_b         18.24
_cell_length_c         11.27
_cell_angle_alpha     90
_cell_angle_beta      128.0
_cell_angle_gamma     90


# setting 
# _symmetry_space_group_name_H-M 'C12/m1'


loop_
_symmetry_equiv_pos_as_xyz
'x,y,z'
'-x,y,-z'
'-x,-y,-z'
'x,-y,z'
'x+1/2,y+1/2,z'
'-x+1/2,y+1/2,-z'
'-x+1/2,-y+1/2,-z'
'x+1/2,-y+1/2,z'


loop_
_atom_site_label
_atom_site_type_sumbol
_atom_site_fract_x
_atom_site_fract_y
_atom_site_fract_z
_atom_site_occupancy
_atom_site_U_iso_or_equiv
NA1 Na 0.5055 0.0659 0.0392 0.22 0.0542
CA1 Ca 0.2805 0.0 0.0949 1.0 0.0272
SI1 Si 0.4830 0.3042 0.2420 0.5 0.0058
SI2 Si 0.2653 0.3097 0.2619 0.73 0.0042
SI3 Si 0.1892 0.0893 0.4846 0.73 0.0051
SI4 Si 0.1124 0.3166 0.5013 1.0 0.0054
SI5 Si 0.0 0.2610 0.0 0.5 0.0053
AL1 Al 0.4830 0.3042 0.2420 0.5 0.0058
AL2 Al 0.2653 0.3097 0.2619 0.27 0.0042
AL3 Al 0.1892 0.0893 0.4846 0.27 0.0051
AL5 Al 0.0 0.2610 0.0 0.5 0.0053
O1 O 0.4645 0.2911 0.0842 1.0 0.0177
O2 O 0.1164 0.3162 0.1189 1.0 0.0175
O3 O 0.0512 0.2661 0.3516 1.0 0.0257
O4 O 0.0638 0.1199 0.3226 1.0 0.0179
O5 O 0.2935 0.2308 0.3453 1.0 0.0255
O6 O 0.3001 0.3796 0.3714 1.0 0.0223
O7 O 0.3406 0.3162 0.1914 1.0 0.0177
O8 O 0.3157 0.1119 0.5024 1.0 0.0225
O9 O 0.1863 0.0 0.4876 1.0 0.0222
O10 O 0.0 0.3509 0.5 1.0 0.0146
H2O1 O2-(H2O) 0.1347 0.0776 0.1067 0.84 0.0944
H2O2 O2-(H2O) 0.3306 0.1258 0.1013 0.91 0.0597
H2O3 O2-(H2O) 0.3691 0.0 0.3549 0.85 0.0453
H2O4 O2-(H2O) 0.5124 0.0 0.2416 1.0 0.1264
H2O5 O2-(H2O) 0.4028 0.5 0.1632 1.0 0.0598
H2O6 O2-(H2O) 0.1712 0.5 0.1040 1.0 0.1287




