data_Barrerite
_cell_length_a         13.643
_cell_length_b         18.200
_cell_length_c         17.842
_cell_angle_alpha     90
_cell_angle_beta      90
_cell_angle_gamma     90


# setting 
_symmetry_space_group_name_H-M 'Amma'


loop_
_symmetry_equiv_pos_as_xyz
'x,y,z'
'x+1/2,-y,-z'
'-x,y,-z'
'-x+1/2,-y,z'
'-x,-y,-z'
'-x-1/2,y,z'
'x,-y,z'
'x-1/2,y,-z'
'x,y+1/2,z+1/2'
'x+1/2,-y+1/2,-z+1/2'
'-x,y+1/2,-z+1/2'
'-x+1/2,-y+1/2,z+1/2'
'-x,-y+1/2,-z+1/2'
'-x-1/2,y+1/2,z+1/2'
'x,-y+1/2,z+1/2'
'x-1/2,y+1/2,-z+1/2'


loop_
_atom_site_label
_atom_site_type_symbol
_atom_site_fract_x
_atom_site_fract_y
_atom_site_fract_z
_atom_site_occupancy
_atom_site_U_iso_or_equiv
NA1 Na 0.25 0.0 0.0417 0.521 0.1273
NA11 Na 0.25 0.0 0.4558 0.442 0.0484
NA2 Na 0.0482 0.0624 0.0446 0.101 0.1644
NA21 Na 0.0369 0.0634 0.4792 0.181 0.2313
NA3 Na 0.1611 0.0 0.2386 0.181 0.1986
K1 K 0.25 0.0 0.0417 0.102 0.1273
K11 K 0.25 0.0 0.4558 0.086 0.0484
K2 K 0.0482 0.0624 0.0446 0.02 0.1644
K21 K 0.0369 0.0634 0.4792 0.035 0.2313
K3 K 0.1611 0.0 0.2386 0.035 0.1986
MG1 Mg 0.25 0.0 0.0417 0.001 0.1273
MG11 Mg 0.25 0.0 0.4558 0.001 0.0484
MG21 Mg 0.0369 0.0634 0.4792 0.001 0.2313
MG3 Mg 0.1611 0.0 0.2386 0.001 0.1986
CA1 Ca 0.25 0.0 0.0417 0.08 0.1273
CA11 Ca 0.25 0.0 0.4558 0.068 0.0484
CA2 Ca 0.0482 0.0624 0.0446 0.016 0.1644
CA21 Ca 0.0369 0.0634 0.4792 0.028 0.2313
CA3 Ca 0.1611 0.0 0.2386 0.028 0.1986
SI1 Si 0.1356 0.3037 0.1245 0.772 0.0151
SI2 Si 0.1363 0.3122 0.3724 0.772 0.0153
SI3 Si 0.0512 0.4110 0.2433 0.772 0.0153
SI4 Si 0.1386 0.1846 0.2541 0.772 0.0133
SI5 Si 0.0 0.2399 0.0 0.772 0.0177
AL1 Al 0.1356 0.3037 0.1245 0.228 0.0151
AL2 Al 0.1363 0.3122 0.3724 0.228 0.0153
AL3 Al 0.0512 0.4110 0.2433 0.228 0.0153
AL4 Al 0.1386 0.1846 0.2541 0.228 0.0133
AL5 Al 0.0 0.2399 0.0 0.228 0.0177
O1 O 0.0699 0.2937 0.0495 1.0 0.0362
O11 O 0.0664 0.3136 0.4475 1.0 0.0346
O3 O 0.1195 0.2338 0.1806 1.0 0.0374
O31 O 0.1247 0.2331 0.3299 1.0 0.0294
O4 O 0.1062 0.3806 0.1677 1.0 0.0396
O41 O 0.1060 0.3810 0.3188 1.0 0.0381
O7 O 0.25 0.3104 0.0971 1.0 0.0350
O71 O 0.25 0.3219 0.4007 1.0 0.0280
O8 O 0.0656 0.1142 0.2550 1.0 0.0322
O9 O 0.0546 0.5 0.2435 1.0 0.0353
O10 O 0.25 0.1508 0.2540 1.0 0.0270
H2O1 O2-(H2O) 0.1911 0.1160 0.0519 0.49 0.1305
H2O11 O2-(H2O) 0.0894 0.0824 0.4356 0.41 0.1026
H2O2 O2-(H2O) 0.25 0.1259 0.0557 0.32 0.0291
H2O21 O2-(H2O) 0.25 0.1313 0.4421 0.91 0.1178
H2O3 O2-(H2O) 0.1750 0.0 0.1764 0.38 0.0937
H2O31 O2-(H2O) 0.2177 0.0 0.3221 0.46 0.0760
H2O4 O2-(H2O) 0.0915 0.0 0.1217 0.50 0.1735
H2O41 O2-(H2O) 0.1479 0.0 0.3869 0.50 0.1798
H2O5 O2-(H2O) 0.2174 0.5 0.0917 0.20 0.0367
H2O51 O2-(H2O) 0.1966 0.5 0.4154 0.42 0.1013
H2O6 O2-(H2O) 0.1251 0.5 0.0607 0.83 0.1026
H2O61 O2-(H2O) 0.0814 0.5 0.4349 0.50 0.1444
H2O8 O2-(H2O) 0.25 0.5 0.1615 0.50 0.2520
H2O81 O2-(H2O) 0.25 0.5 0.3615 0.50 0.0152




