data_SSZ-31_polymorph_I_SiO2_Framework
_cell_length_a        29.886
_cell_length_b        8.390
_cell_length_c        24.731
_cell_angle_alpha    90.0
_cell_angle_beta     105.05
_cell_angle_gamma    90.0


# setting 
# _symmetry_space_group_name_H-M 'P2/m'


loop_
_symmetry_equiv_pos_as_xyz
'x,y,z'
'-x,y,-z'
'-x,-y,-z'
'x,-y,z'


loop_
_atom_site_label
_atom_site_type_sumbol
_atom_site_fract_x
_atom_site_fract_y
_atom_site_fract_z
_atom_site_occupancy
_atom_site_U_iso_or_equiv
Si1 Si 0.86507 0.31741 0.10256 1.0 0.0127
Si2 Si 0.79886 0.18425 0.99487 1.0 0.0127
Si3 Si 0.14369 0.31682 0.40464 1.0 0.0127
Si4 Si 0.79397 0.31503 0.37240 1.0 0.0127
Si5 Si 0.64916 0.31985 0.19544 1.0 0.0127
Si6 Si 0.70119 0.31539 0.00760 1.0 0.0127
Si7 Si 0.35988 0.18223 0.10040 1.0 0.0127
Si8 Si 0.69575 0.18301 0.31342 1.0 0.0127
Si9 Si 0.64079 0.31452 0.39729 1.0 0.0127
Si10 Si 0.35318 0.18191 0.29682 1.0 0.0127
Si11 Si 0.29188 0.31967 0.36775 1.0 0.0127
Si12 Si 0.05548 0.31706 0.21959 1.0 0.0127
Si13 Si 0.95791 0.18572 0.17155 1.0 0.0127
Si14 Si 0.19958 0.31510 0.12044 1.0 0.0127
Si15 Si 0.14228 0.18361 0.19731 1.0 0.0127
Si16 Si 0.19460 0.18172 0.32041 1.0 0.0127
Si17 Si 0.95250 0.31574 0.28508 1.0 0.0127
Si18 Si 0.86489 0.18538 0.31243 1.0 0.0127
Si19 Si 0.78979 0.18331 0.48767 1.0 0.0127
Si20 Si 0.05049 0.18554 0.33240 1.0 0.0127
Si21 Si 0.70889 0.18154 0.12380 1.0 0.0127
Si22 Si 0.30428 0.31736 0.17904 1.0 0.0127
Si23 Si 0.30744 0.18799 0.48731 1.0 0.0127
Si24 Si 0.81276 0.18315 0.18469 1.0 0.0127
Si25 Si 0.45342 0.31540 0.16231 1.0 0.0127
Si26 Si 0.55362 0.18316 0.19816 1.0 0.0127
Si27 Si 0.44924 0.31474 0.28945 1.0 0.0127
Si28 Si 0.54932 0.18225 0.32579 1.0 0.0127
O1 O 0.12722 0.00000 0.19954 1.0 0.0253
O2 O 0.00724 0.26931 0.17605 1.0 0.0253
O3 O 0.05336 0.50000 0.23840 1.0 0.0253
O4 O 0.20609 0.00000 0.02391 1.0 0.0253
O5 O 0.75884 0.23045 0.16323 1.0 0.0253
O6 O 0.82962 0.20655 0.25149 1.0 0.0253
O7 O 0.84243 0.29655 0.15453 1.0 0.0253
O8 O 0.81961 0.00000 0.16915 1.0 0.0253
O9 O 0.94463 0.20470 0.23029 1.0 0.0253
O10 O 0.96100 0.00000 0.15674 1.0 0.0253
O11 O 0.83935 0.20231 0.05193 1.0 0.0253
O12 O 0.85992 0.50000 0.08182 1.0 0.0253
O13 O 0.19290 0.50000 0.13379 1.0 0.0253
O14 O 0.91915 0.27099 0.12256 1.0 0.0253
O15 O 0.75076 0.24552 0.00524 1.0 0.0253
O16 O 0.16460 0.20937 0.14532 1.0 0.0253
O17 O 0.09717 0.29479 0.19004 1.0 0.0253
O18 O 0.18865 0.28901 0.05379 1.0 0.0253
O19 O 0.75055 0.21382 0.33661 1.0 0.0253
O20 O 0.17932 0.22926 0.25510 1.0 0.0253
O21 O 0.16972 0.29749 0.35561 1.0 0.0253
O22 O 0.17971 0.00000 0.32752 1.0 0.0253
O23 O 0.06408 0.20342 0.27380 1.0 0.0253
O24 O 0.04581 0.00000 0.34646 1.0 0.0253
O25 O 0.16819 0.20557 0.45701 1.0 0.0253
O26 O 0.14658 0.50000 0.42469 1.0 0.0253
O27 O 0.21264 0.00000 0.53214 1.0 0.0253
O28 O 0.78667 0.50000 0.35509 1.0 0.0253
O29 O 0.87767 0.00000 0.32396 1.0 0.0253
O30 O 0.00171 0.27340 0.32765 1.0 0.0253
O31 O 0.95213 0.50000 0.26682 1.0 0.0253
O32 O 0.84085 0.25121 0.35923 1.0 0.0253
O33 O 0.91154 0.28468 0.31517 1.0 0.0253
O34 O 0.74183 0.23156 0.50152 1.0 0.0253
O35 O 0.79786 0.29547 0.43822 1.0 0.0253
O36 O 0.09014 0.26627 0.38153 1.0 0.0253
O37 O 0.67064 0.19712 0.15888 1.0 0.0253
O38 O 0.59442 0.28766 0.18425 1.0 0.0253
O39 O 0.65702 0.50000 0.17728 1.0 0.0253
O40 O 0.55911 0.00000 0.18158 1.0 0.0253
O41 O 0.69563 0.29846 0.07039 1.0 0.0253
O42 O 0.69751 0.50000 0.98929 1.0 0.0253
O43 O 0.32562 0.20470 0.23214 1.0 0.0253
O44 O 0.30425 0.50000 0.19901 1.0 0.0253
O45 O 0.41490 0.21422 0.11790 1.0 0.0253
O46 O 0.44938 0.50000 0.14399 1.0 0.0253
O47 O 0.34985 0.00000 0.11398 1.0 0.0253
O48 O 0.71050 0.00000 0.10324 1.0 0.0253
O49 O 0.25208 0.26193 0.14951 1.0 0.0253
O50 O 0.33538 0.30115 0.13504 1.0 0.0253
O51 O 0.44465 0.29688 0.22348 1.0 0.0253
O52 O 0.33935 0.21584 0.03449 1.0 0.0253
O53 O 0.50416 0.24989 0.16287 1.0 0.0253
O54 O 0.25000 0.19762 0.34309 1.0 0.0253
O55 O 0.67450 0.29779 0.26087 1.0 0.0253
O56 O 0.67047 0.21838 0.36221 1.0 0.0253
O57 O 0.68706 0.00000 0.29388 1.0 0.0253
O58 O 0.55717 0.19579 0.26403 1.0 0.0253
O59 O 0.55646 0.00000 0.34669 1.0 0.0253
O60 O 0.65156 0.24004 0.45936 1.0 0.0253
O61 O 0.65494 0.50000 0.40076 1.0 0.0253
O62 O 0.68958 0.00000 0.52389 1.0 0.0253
O63 O 0.27278 0.50000 0.35999 1.0 0.0253
O64 O 0.34790 0.00000 0.31503 1.0 0.0253
O65 O 0.49763 0.23927 0.32448 1.0 0.0253
O66 O 0.44735 0.50000 0.30555 1.0 0.0253
O67 O 0.33163 0.29884 0.33512 1.0 0.0253
O68 O 0.40723 0.22176 0.30521 1.0 0.0253
O69 O 0.31341 0.28464 0.43336 1.0 0.0253
O70 O 0.58636 0.29490 0.36760 1.0 0.0253




