data_SSZ-23
_cell_length_a        12.9594
_cell_length_b        21.7919
_cell_length_c        13.5980
_cell_angle_alpha    90.0
_cell_angle_beta     101.855
_cell_angle_gamma    90.0


# setting 
_symmetry_space_group_name_H-M 'P121/n1'


loop_
_symmetry_equiv_pos_as_xyz
'x,y,z'
'-x+1/2,y+1/2,-z+1/2'
'-x,-y,-z'
'x-1/2,-y-1/2,z-1/2'


loop_
_atom_site_label
_atom_site_type_symbol
_atom_site_fract_x
_atom_site_fract_y
_atom_site_fract_z
_atom_site_occupancy
_atom_site_U_iso_or_equiv
Si1 Si 0.59105 0.16686 0.20389 1.0 0.0098
Si2 Si 0.6351 0.16809 0.44152 1.0 0.0127
Si3 Si 0.69632 0.57232 -0.0374 1.0 0.0106
Si4 Si 0.66614 0.49124 0.13311 1.0 0.0094
Si5 Si 0.6625 0.29875 0.21813 1.0 0.0111
Si6 Si 0.6889 0.30373 0.44861 1.0 0.0111
Si7 Si 0.5039 0.4046 0.1951 1.0 0.0148
Si8 Si 0.4663 0.09638 0.52554 1.0 0.0118
Si9 Si 0.7777 0.55142 0.33339 1.0 0.0117
Si10 Si 0.36884 0.00001 0.37794 1.0 0.0082
Si11 Si 0.1541 0.50214 0.35464 1.0 0.0119
Si12 Si 0.8221 0.38557 0.1683 1.0 0.0133
Si13 Si 0.5381 0.41447 0.424 1.0 0.0203
Si14 Si 0.8892 0.37328 0.55406 1.0 0.0108
Si15 Si 0.3487 0.46238 0.503 1.0 0.0160
Si16 Si 0.9363 0.44089 0.3693 1.0 0.0163
O1 O 0.638 0.5326 0.0329 1.0 0.0136
O2 O 0.5926 0.166 0.3221 1.0 0.0242
O3 O 0.9008 0.4015 0.2708 1.0 0.0350
O4 O 0.6618 0.236 0.4841 1.0 0.0190
O5 O 0.5436 0.145 0.493 1.0 0.0220
O6 O 0.7546 0.3237 0.1668 1.0 0.0179
O7 O 0.7534 0.4429 0.1182 1.0 0.0218
O8 O 0.6365 0.2305 0.1751 1.0 0.0157
O9 O 0.4366 0.4154 0.4794 1.0 0.0233
O10 O 0.9431 0.3958 0.4641 1.0 0.0204
O11 O 0.3965 0.1321 0.5894 1.0 0.0132
O12 O 0.5605 0.4591 0.1489 1.0 0.0208
O13 O 0.6119 0.6022 -0.1252 1.0 0.0187
O14 O 0.7357 0.1251 0.4725 1.0 0.0260
O15 O 0.4869 0.4187 0.3065 1.0 0.0269
O16 O 0.3942 0.0661 0.4285 1.0 0.0187
O17 O 0.7114 0.5353 0.2244 1.0 0.0219
O18 O 0.6618 0.1137 0.1752 1.0 0.0301
O19 O 0.4741 0.1588 0.1421 1.0 0.0231
O20 O 0.5929 0.3488 0.4575 1.0 0.0209
O21 O 0.5313 0.0435 0.5938 1.0 0.0231
O22 O 0.255 0.4651 0.4069 1.0 0.0271
O23 O 0.7727 0.5288 -0.0852 1.0 0.0308
O24 O 0.6977 0.5644 0.4059 1.0 0.0300
O25 O 0.1585 0.5697 0.4003 1.0 0.0263
O26 O 0.7033 0.2962 0.3361 1.0 0.0225
O27 O 0.558 0.3389 0.1887 1.0 0.0208
O28 O 0.8602 0.498 0.3767 1.0 0.0244
O29 O 0.0522 0.466 0.3707 1.0 0.0360
O30 O 0.3415 0.0086 0.2609 1.0 0.0293
O31 O 0.7965 0.3253 0.5173 1.0 0.0219
O32 O 0.6054 0.4709 0.4705 1.0 0.0370
N1 N 0.2428 0.7703 0.155 1.0 0.0811
C1 C 0.3457 0.7267 0.1737 1.0 0.0339
C2 C 0.5292 0.7219 0.1601 1.0 0.1710
C3 C 0.3687 0.7103 0.2776 1.0 0.1160
C4 C 0.4504 0.6122 0.2391 1.0 0.0780
C5 C 0.4773 0.6709 0.2948 1.0 0.0970
C6 C 0.2674 0.8296 0.2124 1.0 0.1050
C7 C 0.5595 0.7035 0.2696 1.0 0.1370
C8 C 0.3194 0.6723 0.1102 1.0 0.1299
C9 C 0.4313 0.2629 0.1453 1.0 0.1001
C10 C 0.425 0.63 0.1223 1.0 0.1489
C11 C 0.1602 0.7437 0.1979 1.0 0.2050
C12 C 0.5153 0.6654 0.1113 1.0 0.1581
C13 C 0.2111 0.7845 0.0455 1.0 0.1880
F1 F 0.7395 0.404 0.2683 0.317 0.0250
F2 F 0.6632 0.4191 0.3659 0.262 0.0250
F3 F 0.6473 0.414 0.2743 0.131 0.0250




