data_SU-32
_cell_length_a        12.2635
_cell_length_b        12.2635
_cell_length_c        30.2527
_cell_angle_alpha    90.00
_cell_angle_beta     90.00
_cell_angle_gamma    120.0


# setting 
# _symmetry_space_group_name_H-M 'P6122'


loop_
_symmetry_equiv_pos_as_xyz
'x,y,z'
'x-y,x,z+1/6'
'y,-x+y,z+5/6'
'-y,x-y,z+1/3'
'-x+y,-x,z+2/3'
'x-y,-y,-z'
'-x,-x+y,-z+2/3'
'-x,-y,z+1/2'
'y,x,-z+1/3'
'-y,-x,-z+5/6'
'-x+y,y,-z+1/2'
'x,x-y,-z+1/6'


loop_
_atom_site_label
_atom_site_type_sumbol
_atom_site_fract_x
_atom_site_fract_y
_atom_site_fract_z
_atom_site_occupancy
_atom_site_U_iso_or_equiv
Ge1 Ge 0.70471 0.38082 0.03344 0.684 0.0177
Si1 Si 0.70471 0.38082 0.03344 0.32 0.0178
Ge2 Ge 0.52888 0.4169 -0.03266 0.645 0.0165
Si2 Si 0.52888 0.4169 -0.03266 0.35 0.0165
Ge3 Ge 0.29888 0.39598 -0.14961 0.572 0.0166
Si3 Si 0.29888 0.39598 -0.14961 0.43 0.0166
Ge4 Ge 0.2461 0.33482 -0.04819 0.558 0.0149
Si4 Si 0.2461 0.33482 -0.04819 0.44 0.0149
Ge5 Ge -0.03153 0.11936 -0.03335 0.179 0.0144
Si5 Si -0.03153 0.11936 -0.03335 0.82 0.0144
O1 O -0.0821 0 0 1 0.0423
O2 O 0.5747 0.3345 0.00054 1 0.0351
O3 O 0.12 0.2044 -0.02646 1 0.0334
O4 O -0.0663 0.0663 -0.0833 1 0.0420
O5 O -0.0979 0.2038 -0.0241 1 0.0380
O6 O 0.6438 0.3219 0.0833 1 0.0629
O7 O 0.3693 0.324 -0.03127 1 0.0670
O8 O 0.7711 0.3024 0.00996 1 0.0650
O9 O 0.7828 0.5368 0.0287 1 0.0780
O10 O 0.229 0.322 -0.10301 1 0.0850
O11 O 0.5884 0.5604 -0.0094 1 0.0899
O12 O 0.5848 0.4152 -0.0833 1 0.0760
F1 F 0.9016 0.4508 0.0833 1 0.1060
C1 C 0.972 0.4287 -0.1144 0.5 0.0930
H1A H 0.9955 0.4021 -0.1408 0.5 0.1391
H1B H 0.8878 0.3668 -0.1062 0.5 0.1391
H1C H 0.0289 0.438 -0.091 0.5 0.1391
C2 C 0.978 0.5516 -0.1226 0.5 0.1070
H2 H 0.0703 0.6037 -0.1206 0.5 0.1289
C3 C 0.952 0.612 -0.0912 0.5 0.0909
H3A H 0.9617 0.6889 -0.103 0.5 0.1362
H3B H 0.0093 0.6311 -0.0668 0.5 0.1362
H3C H 0.8675 0.5596 -0.0811 0.5 0.1362
N1 N 0.9685 0.5804 -0.1681 0.5 0.1811
H1D H 0.9891 0.5353 -0.1857 0.5 0.2710
H1E H 0.0205 0.662 -0.173 0.5 0.2710
H1F H 0.8898 0.5617 -0.1737 0.5 0.2710




