data_SSZ-77
_cell_length_a        13.2090
_cell_length_b        13.3238
_cell_length_c         21.5551
_cell_angle_alpha    90.00
_cell_angle_beta     123
_cell_angle_gamma    90.00


# setting b1
_symmetry_space_group_name_H-M 'C121'


_symmetry_space_group_name_H-M 'C121'


loop_
_atom_site_label
_atom_site_type_symbol
_atom_site_fract_x
_atom_site_fract_y
_atom_site_fract_z
_atom_site_occupancy
_atom_site_U_iso_or_equiv
Si1 Si 0.432 0.305 0.039 1.00 0.0100
Ge2 Ge 0.324 0.110 0.065 1.00 0.0100
Si3 Si 0.115 0.116 0.202 1.00 0.0100
Si4 Si 0.364 0.113 0.231 1.00 0.0100
Si5 Si 0.080 0.242 0.311 0.65 0.0100
Ge5 Ge 0.080 0.242 0.311 0.35 0.0100
Si6 Si 0.314 0.364 0.402 1.00 0.0100
Si7 Si 0.081 0.107 0.432 1.00 0.0100
Si8 Si 0.425 0.361 0.568 0.50 0.0100
Ge8 Ge 0.425 0.361 0.568 0.50 0.0100
Si9 Si 0.189 0.110 0.596 0.50 0.0100
Ge9 Ge 0.189 0.110 0.596 0.50 0.0100
Si10 Si 0.410 0.243 0.686 1.00 0.0100
Si11 Si 0.137 0.379 0.772 1.00 0.0100
Si12 Si 0.396 0.382 0.799 1.00 0.0100
Si13 Si 0.162 0.377 0.927 1.00 0.0100
Si14 Si 0.049 0.195 0.958 0.75 0.0100
Ge14 Ge 0.049 0.195 0.958 0.25 0.0100
O1 O 0.500 0.315 -.004 0.50 0.0149
O2 O 0.006 0.204 0.016 0.50 0.0149
O3 O 0.173 0.127 -.006 1.00 0.0149
O4 O 0.417 0.190 0.053 1.00 0.0149
O5 O 0.869 0.489 0.065 1.00 0.0149
O6 O 0.054 0.140 0.117 1.00 0.0149
O7 O 0.336 0.135 0.150 1.00 0.0149
O8 O 0.099 0. 0.214 1.00 0.0149
O9 O 0.253 0.141 0.238 1.00 0.0149
O10 O 0.055 0.182 0.236 1.00 0.0149
O11 O 0.398 -.004 0.252 1.00 0.0149
O12 O 0.472 0.181 0.289 1.00 0.0149
O13 O 0.195 0.315 0.338 1.00 0.0149
O14 O 0.112 0.161 0.378 1.00 0.0149
O15 O 0.287 0.484 0.394 1.00 0.0149
O16 O 0.427 0.337 0.395 1.00 0.0149
O17 O 0.343 0.323 0.480 1.00 0.0149
O18 O 0.175 0.145 0.516 1.00 0.0149
O19 O 0.404 0.486 0.573 1.00 0.0149
O20 O 0.058 0.135 0.591 1.00 0.0149
O21 O 0.375 0.302 0.613 1.00 0.0149
O22 O 0.305 0.166 0.668 1.00 0.0149
O23 O 0.037 0.309 0.708 1.00 0.0149
O24 O 0.430 0.320 0.749 1.00 0.0149
O25 O 0.264 0.353 0.782 1.00 0.0149
O26 O 0.142 0.358 0.847 1.00 0.0149
O27 O 0.492 0.359 0.883 1.00 0.0149
O28 O 0.074 0.306 0.937 1.00 0.0149
O29 O 0.301 0.356 0.991 1.00 0.0149




