data_SUZ-4
_cell_length_a        18.8064
_cell_length_b        14.2298
_cell_length_c        7.4548
_cell_angle_alpha    90.0
_cell_angle_beta     90.0
_cell_angle_gamma    90.0


# setting 
# _symmetry_space_group_name_H-M 'Cmmm'


loop_
_symmetry_equiv_pos_as_xyz
'x,y,z'
'x,-y,-z'
'-x,y,-z'
'-x,-y,z'
'-x,-y,-z'
'-x,y,z'
'x,-y,z'
'x,y,-z'
'x+1/2,y+1/2,z'
'x+1/2,-y+1/2,-z'
'-x+1/2,y+1/2,-z'
'-x+1/2,-y+1/2,z'
'-x+1/2,-y+1/2,-z'
'-x+1/2,y+1/2,z'
'x+1/2,-y+1/2,z'
'x+1/2,y+1/2,-z'


loop_
_atom_site_label
_atom_site_type_sumbol
_atom_site_fract_x
_atom_site_fract_y
_atom_site_fract_z
_atom_site_occupancy
_atom_site_U_iso_or_equiv
Si1 Si 0.0818 0.1976 0.2926 1 0.0130
Si2 Si 0.1463 0 0.2905 1 0.0130
Si3 Si 0.2677 0 0 1 0.0130
Si4 Si 0.1726 0.2974 0 1 0.0130
O1 O 0 0.2209 0.2449 1 0.0230
O2 O 0.0995 0.0916 0.2387 1 0.0230
O3 O 0.2195 0 0.1796 1 0.0230
O4 O 0.25 0.25 0 1 0.0230
O5 O 0.3196 0.0906 0 1 0.0230
O6 O 0.1309 0.2683 0.1811 1 0.0230
O7 O 0.1677 0 0.5 1 0.0230
O8 O 0.0992 0.2173 0.5 1 0.0230
K1 K 0 0 0 1 0.0570
K2 K 0.25 0.25 0.5 0.191 0.4709
K3 K 0.2151 0.4015 0.5 0.137 0.0250




