data_Terranovaite
_cell_length_a        9.747
_cell_length_b        23.880
_cell_length_c        20.068
_cell_angle_alpha    90
_cell_angle_beta     90
_cell_angle_gamma    90


# setting 
# _symmetry_space_group_name_H-M 'Cmcm'


loop_
_symmetry_equiv_pos_as_xyz
'x,y,z'
'x,-y,-z'
'-x,y,-z+1/2'
'-x,-y,z+1/2'
'-x,-y,-z'
'-x,y,z'
'x,-y,z-1/2'
'x,y,-z-1/2'
'x+1/2,y+1/2,z'
'x+1/2,-y+1/2,-z'
'-x+1/2,y+1/2,-z+1/2'
'-x+1/2,-y+1/2,z+1/2'
'-x+1/2,-y+1/2,-z'
'-x+1/2,y+1/2,z'
'x+1/2,-y+1/2,z-1/2'
'x+1/2,y+1/2,-z-1/2'


loop_
_atom_site_label
_atom_site_type_sumbol
_atom_site_fract_x
_atom_site_fract_y
_atom_site_fract_z
_atom_site_occupancy
_atom_site_U_iso_or_equiv
Si1 Si 0.0 0.4524 0.3281 0.846 0.0128
Al1 Al 0.0 0.4524 0.3281 0.154 0.0128
Si2 Si 0.0 0.5440 0.4396 0.846 0.0149
Al2 Al 0.0 0.5440 0.4396 0.154 0.0149
Si3 Si 0.7919 0.3604 0.3728 0.846 0.0162
Al3 Al 0.7919 0.3604 0.3728 0.154 0.0162
Si4 Si 0.7917 0.6392 0.4694 0.846 0.0143
Al4 Al 0.7917 0.6392 0.4694 0.154 0.0143
Si5 Si 0.0 0.1806 0.4414 0.846 0.0136
Al5 Al 0.0 0.1806 0.4414 0.154 0.0136
Si6 Si 0.0 0.7321 0.4365 0.846 0.0128
Al6 Al 0.0 0.7321 0.4365 0.154 0.0128
Si7 Si 0.0 0.2697 0.3272 0.846 0.0146
Al7 Al 0.0 0.2697 0.3272 0.154 0.0146
Si8 Si 0.0 0.8252 0.3289 0.846 0.0129
Al8 Al 0.0 0.8252 0.3289 0.154 0.0129
O1 O 0.0 0.4692 0.25 1.0 0.0432
O2 O 0.0 0.5113 0.3679 1.0 0.0503
O3 O 0.1367 0.4160 0.3453 1.0 0.0474
O4 O 0.0 0.5 0.5 1.0 0.0717
O5 O 0.8630 0.5836 0.4415 1.0 0.0503
O6 O 0.1958 0.3583 0.4512 1.0 0.0638
O7 O 0.6325 0.3623 0.3488 1.0 0.0400
O8 O 0.8661 0.3057 0.3415 1.0 0.0439
O9 O 0.3663 0.6374 0.4453 1.0 0.0296
O10 O 0.8655 0.6932 0.4377 1.0 0.0384
O11 O 0.0 0.2124 0.3685 1.0 0.0371
O12 O 0.0 0.7751 0.4970 1.0 0.0391
O13 O 0.0 0.7648 0.3656 1.0 0.0303
O14 O 0.0 0.2515 0.25 1.0 0.0415
O15 O 0.0 0.8123 0.25 1.0 0.0508
Na1 Na 0.0 0.0458 0.4442 0.03632 0.0089
Na2 Na 0.0 0.0403 0.25 0.05564 0.0203
Na3 Na 0.3578 0.4603 0.25 0.07573 0.1165
Na4 Na 0.1457 0.0399 0.3495 0.05718 0.1203
Na5 Na 0.0 0.6982 0.25 0.04327 0.1203
Na6 Na 0.0 0.9509 0.4405 0.04327 0.1203
Na7 Na 0.9089 0.1288 0.25 0.04327 0.1203
Na8 Na 0.3519 0.4804 0.4598 0.02859 0.1039
Na9 Na 0.0 0.9651 0.3547 0.02009 0.0519
Na10 Na 0.0 0.5972 0.25 0.04327 0.1494
Na11 Na 0.3056 0.1983 0.25 0.03709 0.1203
Na12 Na 0.1901 0.0815 0.1907 0.01545 0.1102
K1 K 0.0 0.0458 0.4442 0.00142 0.0089
K2 K 0.0 0.0403 0.25 0.00218 0.0203
K3 K 0.3578 0.4603 0.25 0.00297 0.1165
K4 K 0.1457 0.0399 0.3495 0.00224 0.1203
K5 K 0.0 0.6982 0.25 0.00170 0.1203
K6 K 0.0 0.9509 0.4405 0.00170 0.1203
K7 K 0.9089 0.1288 0.25 0.00170 0.1203
K8 K 0.3519 0.4804 0.4598 0.00112 0.1039
K9 K 0.0 0.9651 0.3547 0.00079 0.0519
K10 K 0.0 0.5972 0.25 0.00170 0.1494
K11 K 0.3056 0.1983 0.25 0.00145 0.1203
K12 K 0.1901 0.0815 0.1907 0.00061 0.1102
Mg1 Mg 0.0 0.0458 0.4442 0.00142 0.0089
Mg2 Mg 0.0 0.0403 0.25 0.00218 0.0203
Mg3 Mg 0.3578 0.4603 0.25 0.00297 0.1165
Mg4 Mg 0.1457 0.0399 0.3495 0.00224 0.1203
Mg5 Mg 0.0 0.6982 0.25 0.00170 0.1203
Mg6 Mg 0.0 0.9509 0.4405 0.00170 0.1203
Mg7 Mg 0.9089 0.1288 0.25 0.00170 0.1203
Mg8 Mg 0.3519 0.4804 0.4598 0.00112 0.1039
Mg9 Mg 0.0 0.9651 0.3547 0.00079 0.0519
Mg10 Mg 0.0 0.5972 0.25 0.00170 0.1494
Mg11 Mg 0.3056 0.1983 0.25 0.00145 0.1203
Mg12 Mg 0.1901 0.0815 0.1907 0.00061 0.1102
Ca1 Ca 0.0 0.0458 0.4442 0.03205 0.0089
Ca2 Ca 0.0 0.0403 0.25 0.04909 0.0203
Ca3 Ca 0.3578 0.4603 0.25 0.06682 0.1165
Ca4 Ca 0.1457 0.0399 0.3495 0.05045 0.1203
Ca5 Ca 0.0 0.6982 0.25 0.03818 0.1203
Ca6 Ca 0.0 0.9509 0.4405 0.03818 0.1203
Ca7 Ca 0.9089 0.1288 0.25 0.03818 0.1203
Ca8 Ca 0.3519 0.4804 0.4598 0.02523 0.1039
Ca9 Ca 0.0 0.9651 0.3547 0.01773 0.0519
Ca10 Ca 0.0 0.5972 0.25 0.03818 0.1494
Ca11 Ca 0.3056 0.1983 0.25 0.03273 0.1203
Ca12 Ca 0.1901 0.0815 0.1907 0.01364 0.1102




