data_Thomsonite
_cell_length_a         13.088
_cell_length_b         13.052
_cell_length_c         13.229
_cell_angle_alpha     90
_cell_angle_beta      90
_cell_angle_gamma     90


# setting 
# _symmetry_space_group_name_H-M 'Pncn'


loop_
_symmetry_equiv_pos_as_xyz
'x,y,z'
'x+1/2,-y+1/2,-z+1/2'
'-x,y,-z+1/2'
'-x+1/2,-y+1/2,z'
'-x,-y,-z'
'-x-1/2,y-1/2,z-1/2'
'x,-y,z-1/2'
'x-1/2,y-1/2,-z'


loop_
_atom_site_label
_atom_site_type_sumbol
_atom_site_fract_x
_atom_site_fract_y
_atom_site_fract_z
_atom_site_occupancy
_atom_site_U_iso_or_equiv
NA1 Na 0.0582 0.50360 0.36141 0.5 0.0155
CA1 Ca 0.0582 0.50360 0.36141 0.5 0.0155
CA2 Ca 0.49939 0.47837 0.49952 0.9 0.0170
SR2 Sr 0.49939 0.47837 0.49952 0.1 0.0170
SI1 Si 0.25 0.25 0.6885 1.0 0.0065
SI2 Si 0.11291 0.69558 0.50065 1.0 0.0065
SI3 Si 0.3082 0.38501 0.37805 1.0 0.0062
AL1 Al 0.25 0.75 0.69049 1.0 0.0061
AL2 Al 0.11939 0.30543 0.49655 1.0 0.0063
AL3 Al 0.30947 0.62405 0.38045 1.0 0.0065
O1 O 0.16863 0.31051 0.61839 1.0 0.0123
O2 O 0.15818 0.69179 0.61444 1.0 0.0120
O3 O 0.31248 0.33136 0.75655 1.0 0.0123
O4 O 0.31152 0.65725 0.76318 1.0 0.0124
O5 O 0.00216 0.63793 0.50143 1.0 0.0094
O6 O 0.1838 0.6298 0.42414 1.0 0.0129
O7 O 0.19038 0.38476 0.41668 1.0 0.0127
O8 O 0.10438 0.81313 0.46106 1.0 0.0119
O9 O 0.11829 0.18031 0.45256 1.0 0.0130
O10 O 0.35586 0.49928 0.38346 1.0 0.0091
O20 O 0.12597 0.50192 0.18859 1.0 0.0265
O21 O 0.39173 0.49760 0.63937 1.0 0.0277
O22 O 0.0 0.64972 0.75 1.0 0.0300
O23 O 0.0 0.34436 0.75 1.0 0.0277
H1 H 0.15914 0.43727 0.66171 1.0 0.0343
H2 H 0.15747 0.55922 0.66161 1.0 0.0374
H3 H 0.37012 0.43800 0.67748 1.0 0.0393
H4 H 0.37158 0.55535 0.68126 1.0 0.0393
H5 H 0.04695 0.69037 0.71194 1.0 0.0462
H6 H 0.05008 0.30291 0.71828 1.0 0.0531




