data_Tounkite-like_mineral
_cell_length_a        12.757
_cell_length_b        12.757
_cell_length_c        32.211
_cell_angle_alpha    90.0
_cell_angle_beta     90.
_cell_angle_gamma    120.0


# setting 
_symmetry_space_group_name_H-M 'P3'


loop_
_symmetry_equiv_pos_as_xyz
'x,y,z'
'-y,x-y,z'
'-x+y,-x,z'


loop_
_atom_site_label
_atom_site_type_symbol
_atom_site_fract_x
_atom_site_fract_y
_atom_site_fract_z
_atom_site_occupancy
_atom_site_U_iso_or_equiv
Si1 Si 0.2570 0.0019 0.0000 1.0 0.0051
Si2 Si 0.9245 0.5856 0.0840 1.0 0.0063
Si3 Si 0.0036 0.2553 0.1659 1.0 0.0051
Si4 Si 0.9249 0.5854 0.2477 1.0 0.0063
Si5 Si 0.0003 0.2543 0.3318 1.0 0.0089
Si6 Si 0.3409 0.4152 0.4156 1.0 0.0089
Si7 Si 0.2552 0.0039 0.4975 1.0 0.0063
Si8 Si 0.3390 0.4140 0.5803 1.0 0.0076
Si9 Si 0.2532 -0.0024 0.6642 1.0 0.0089
Si10 Si 0.9249 0.5866 0.7477 1.0 0.0114
Si11 Si 0.2534 0.0001 0.8319 1.0 0.0089
Si12 Si 0.5870 0.9236 0.9165 1.0 0.0101
Al1 Al 0.7405 -0.0005 -0.0014 1.0 0.0109
Al2 Al 0.4026 0.0779 0.0838 1.0 0.0067
Al3 Al 0.2627 0.2601 0.1650 1.0 0.0090
Al4 Al 0.4025 0.0780 0.2476 1.0 0.0054
Al5 Al 0.2597 0.2599 0.3319 1.0 0.0082
Al6 Al 0.0772 0.4020 0.4154 1.0 0.0095
Al7 Al 0.0033 0.7405 0.4982 1.0 0.0089
Al8 Al 0.0773 0.4021 0.5805 1.0 0.0087
Al9 Al 0.7423 0.0005 0.6661 1.0 0.0133
Al10 Al 0.4020 0.0767 0.7483 1.0 0.0094
Al11 Al 0.7399 0.0005 0.8319 1.0 0.0073
Al12 Al 0.0786 0.4030 0.9160 1.0 0.0047
O1 O 0.1205 0.8817 0.0020 1.0 0.0203
O2 O 0.8903 0.1134 -0.0017 1.0 0.0228
O3 O 0.3495 0.3463 0.0398 1.0 0.0228
O4 O 0.6730 0.6657 0.0367 1.0 0.0203
O5 O 0.5501 0.4530 0.0857 1.0 0.0215
O6 O 0.7777 0.2118 0.0855 1.0 0.0177
O7 O 0.3336 0.3455 0.1206 1.0 0.0177
O8 O 0.6633 0.6756 0.1237 1.0 0.0253
O9 O 0.8841 0.1239 0.1659 1.0 0.0101
O10 O 0.1154 0.8833 0.1670 1.0 0.0165
O11 O 0.3407 0.3454 0.2076 1.0 0.0177
O12 O 0.6638 0.6710 0.2031 1.0 0.0165
O13 O 0.5479 0.4521 0.2483 1.0 0.0165
O14 O 0.7733 0.2039 0.2473 1.0 0.0177
O15 O 0.3407 0.3418 0.2865 1.0 0.0241
O16 O 0.6728 0.6744 0.2912 1.0 0.0165
O17 O 0.8852 0.1194 0.3324 1.0 0.0241
O18 O 0.1178 0.8872 0.3291 1.0 0.0190
O19 O 0.3434 0.3482 0.3734 1.0 0.0228
O20 O 0.6650 0.6695 0.3704 1.0 0.0177
O21 O 0.4511 0.5474 0.4131 1.0 0.0253
O22 O 0.2091 0.7696 0.4181 1.0 0.0114
O23 O 0.3480 0.3384 0.4535 1.0 0.0114
O24 O 0.6744 0.6603 0.4574 1.0 0.0253
O25 O 0.1266 0.8875 0.4979 1.0 0.0215
O26 O 0.8853 0.1151 0.4978 1.0 0.0190
O27 O 0.3449 0.3354 0.5401 1.0 0.0177
O28 O 0.6734 0.6631 0.5369 1.0 0.0177
O29 O 0.4564 0.5476 0.5820 1.0 0.0241
O30 O 0.2153 0.7763 0.5774 1.0 0.0190
O31 O 0.3441 0.3476 0.6216 1.0 0.0177
O32 O 0.6681 0.6743 0.6235 1.0 0.0177
O33 O 0.1163 0.8878 0.6648 1.0 0.0190
O34 O 0.8844 0.1209 0.6643 1.0 0.0253
O35 O 0.3443 0.3451 0.7047 1.0 0.0279
O36 O 0.6705 0.6772 0.7042 1.0 0.0152
O37 O 0.5465 0.4578 0.7489 1.0 0.0329
O38 O 0.7739 0.2146 0.7474 1.0 0.0241
O39 O 0.3432 0.3412 0.7883 1.0 0.0215
O40 O 0.6707 0.6664 0.7902 1.0 0.0291
O41 O 0.1213 0.8869 0.8329 1.0 0.0228
O42 O 0.8882 0.1196 0.8349 1.0 0.0165
O43 O 0.3420 0.3416 0.8734 1.0 0.0177
O44 O 0.6690 0.6695 0.8698 1.0 0.0228
O45 O 0.4577 0.5481 0.9196 1.0 0.0253
O46 O 0.2108 0.7774 0.9174 1.0 0.0215
O47 O 0.3432 0.3436 0.9555 1.0 0.0228
O48 O 0.6761 0.6704 0.9564 1.0 0.0127
Ca1 Ca 0.0 0.0 0.0010 1.0 0.0153
Ca2 Ca 0.0 0.0 0.1667 1.0 0.0103
Ca3 Ca 0.0 0.0 0.3314 1.0 0.0153
Ca4 Ca 0.0 0.0 0.4988 1.0 0.0085
Ca5 Ca 0.0 0.0 0.6660 1.0 0.0137
Ca6 Ca 0.0 0.0 0.8331 1.0 0.0146
Ca7 Ca 0.6667 0.3333 0.0864 1.0 0.0203
Ca8 Ca 0.6667 0.3333 0.2497 1.0 0.0243
Ca9 Ca 0.6667 0.3333 0.7489 1.0 0.0401
Ca10 Ca 0.3333 0.6667 0.4163 1.0 0.0151
Ca11 Ca 0.3333 0.6667 0.9255 1.0 0.0234
Ca12 Ca 0.3333 0.6667 0.5778 1.0 0.0206
Cl1 Cl 0.0 0.0 0.0844 1.0 0.0697
Cl2 Cl 0.0 0.0 0.2498 1.0 0.0823
Cl3 Cl 0.3333 0.6667 0.4976 1.0 0.0684
Cl4 Cl 0.0 0.0 0.4162 1.0 0.0621
Cl5 Cl 0.0 0.0 0.5805 1.0 0.0671
Cl6 Cl 0.6667 0.3333 0.1711 1.0 0.0735
Cl7 Cl 0.0 0.0 0.7481 1.0 0.0570
Cl8 Cl 0.0 0.0 0.9171 1.0 0.0621
Na1 Na 0.5056 0.5036 -0.0009 1.0 0.0355
Na2 Na 0.2181 0.4271 0.0827 0.86 0.0486
Na3 Na 0.169 0.334 0.0767 0.14 0.0405
Na4 Na 0.4783 0.5307 0.1629 1.0 0.0431
Na5 Na 0.2208 0.4395 0.2458 1.0 0.0456
Na6 Na 0.5049 0.4996 0.3319 0.65 0.0480
Ca13 Ca 0.5049 0.4996 0.3319 0.35 0.0480
Na7 Na 0.4326 0.2180 0.4153 1.0 0.0363
Na8 Na 0.5260 0.4818 0.4964 0.65 0.0490
Ca14 Ca 0.5260 0.4818 0.4964 0.35 0.0490
Na9 Na 0.4415 0.2245 0.5789 1.0 0.0447
Na10 Na 0.4987 0.5099 0.6652 0.65 0.0446
Ca15 Ca 0.4987 0.5099 0.6652 0.35 0.0446
Na11 Na 0.2265 0.4460 0.7509 0.48 0.0460
K K 0.2265 0.4460 0.7509 0.32 0.0460
Na12 Na 0.213 0.411 0.7398 0.20 0.0570
Na13 Na 0.5040 0.5075 0.8328 1.0 0.0370
Na14 Na 0.4413 0.2238 0.9156 0.49 0.0462
Ca16 Ca 0.4413 0.2238 0.9156 0.26 0.0462
Na15 Na 0.360 0.186 0.9129 0.25 0.0836
S1 S 0.3333 0.6667 0.0213 1.0 0.0664
S2 S 0.3333 0.6667 0.1713 1.0 0.0507
S3 S 0.6667 0.3333 0.4991 1.0 0.0328
S4 S 0.6667 0.3333 0.6382 1.0 0.0429
S5 S 0.6667 0.3333 0.8492 1.0 0.0382
S6 S 0.3333 0.6667 0.3068 1.0 0.0418
S7 S 0.3333 0.6667 0.6846 1.0 0.0389
S8 S 0.3333 0.6667 0.8141 1.0 0.0379
S9 S 0.6667 0.3333 0.3575 1.0 0.0309
S10 S 0.6667 0.3333 0.9786 1.0 0.0333
O49 O 0.220 0.614 0.0510 0.70 0.0709
O50 O 0.237 0.615 0.9951 0.30 0.0456
O51 O 0.3333 0.6667 0.062 0.30 0.0861
O52 O 0.235 0.618 0.2023 0.50 0.0937
O53 O 0.3333 0.6667 0.129 0.50 0.1001
O54 O 0.272 0.559 0.1550 0.50 0.1127
O55 O 0.3333 0.6667 0.215 0.50 0.0861
O56 O 0.558 0.280 0.4774 0.50 0.0583
O57 O 0.6667 0.3333 0.5443 0.50 0.0836
O58 O 0.5705 0.253 0.5239 0.50 0.0684
O59 O 0.6667 0.3333 0.4544 0.50 0.0785
O60 O 0.600 0.390 0.6313 1.0 0.1051
O61 O 0.6667 0.3333 0.681 1.0 0.0811
O62 O 0.627 0.407 0.8701 1.0 0.0595
O63 O 0.6667 0.3333 0.805 1.0 0.0849
O64 O 0.212 0.603 0.2885 1.0 0.0963
O65 O 0.3333 0.6667 0.3471 1.0 0.0950
O66 O 0.211 0.597 0.6969 1.0 0.0735
O67 O 0.3333 0.6667 0.647 1.0 0.0912
O68 O 0.2075 0.592 0.8019 1.0 0.0963
O69 O 0.3333 0.6667 0.8553 1.0 0.1102
O70 O 0.609 0.399 0.3669 1.0 0.0722
O71 O 0.6667 0.3333 0.3166 1.0 0.0735
O72 O 0.610 0.396 0.9634 1.0 0.0874
O73 O 0.6667 0.3333 0.0214 1.0 0.0633




