data_Diethylamine_Theta-1_Silica_ZSM-22
_cell_length_a         13.859
_cell_length_b         17.420
_cell_length_c         5.038
_cell_angle_alpha     90
_cell_angle_beta      90
_cell_angle_gamma     90


# setting 
# _symmetry_space_group_name_H-M 'Cmc21'


loop_
_symmetry_equiv_pos_as_xyz
'x,y,z'
'-x,-y,z+1/2'
'-x,y,z'
'x,-y,z+1/2'
'x+1/2,y+1/2,z'
'-x+1/2,-y+1/2,z+1/2'
'-x+1/2,y+1/2,z'
'x+1/2,-y+1/2,z+1/2'


loop_
_atom_site_label
_atom_site_type_sumbol
_atom_site_fract_x
_atom_site_fract_y
_atom_site_fract_z
_atom_site_occupancy
_atom_site_U_iso_or_equiv
SI1 Si 0.0000 0.2737 0.25 1.0 0.0085
SI2 Si 0.0000 0.3768 0.7465 1.0 0.0073
SI3 Si 0.2951 0.0482 0.2265 1.0 0.0101
SI4 Si 0.2055 0.2112 0.1445 1.0 0.0073
O1 O 0.0923 0.4268 0.6977 1.0 0.0186
O2 O 0.0942 0.2224 0.2068 1.0 0.0241
O3 O 0.2712 0.3789 0.6639 1.0 0.0238
O4 O 0.2288 0.4800 0.0234 1.0 0.0133
O5 O 0.2705 0.2584 0.3535 1.0 0.0187
O6 O 0.0 0.3062 0.5441 1.0 0.0203
O7 O 0.0 0.3450 0.0493 1.0 0.0184
C1 C 0.5 0.5195 0.1363 0.575 0.2800
C2 C 0.5 0.5124 0.3458 0.7 0.2800




