data_Tschoumlartnerite
_cell_length_a        31.62
_cell_length_b        31.62
_cell_length_c        31.62
_cell_angle_alpha    90
_cell_angle_beta     90
_cell_angle_gamma    90


# setting 
_symmetry_space_group_name_H-M 'Fm-3m'


loop_
_symmetry_equiv_pos_as_xyz
'x,y,z'
'x,-z,y'
'x,z,-y'
'z,y,-x'
'-z,y,x'
'-y,x,z'
'y,-x,z'
'z,x,y'
'y,z,x'
'-y,-z,x'
'z,-x,-y'
'-y,z,-x'
'-z,-x,y'
'-z,x,-y'
'y,-z,-x'
'x,-y,-z'
'-x,y,-z'
'-x,-y,z'
'y,x,-z'
'-y,-x,-z'
'z,-y,x'
'-z,-y,-x'
'-x,z,y'
'-x,-z,-y'
'-x,-y,-z'
'-x,z,-y'
'-x,-z,y'
'-z,-y,x'
'z,-y,-x'
'y,-x,-z'
'-y,x,-z'
'-z,-x,-y'
'-y,-z,-x'
'y,z,-x'
'-z,x,y'
'y,-z,x'
'z,x,-y'
'z,-x,y'
'-y,z,x'
'-x,y,z'
'x,-y,z'
'x,y,-z'
'-y,-x,z'
'y,x,z'
'-z,y,-x'
'z,y,x'
'x,-z,-y'
'x,z,y'
'x,y+1/2,z+1/2'
'x,-z+1/2,y+1/2'
'x,z+1/2,-y+1/2'
'z,y+1/2,-x+1/2'
'-z,y+1/2,x+1/2'
'-y,x+1/2,z+1/2'
'y,-x+1/2,z+1/2'
'z,x+1/2,y+1/2'
'y,z+1/2,x+1/2'
'-y,-z+1/2,x+1/2'
'z,-x+1/2,-y+1/2'
'-y,z+1/2,-x+1/2'
'-z,-x+1/2,y+1/2'
'-z,x+1/2,-y+1/2'
'y,-z+1/2,-x+1/2'
'x,-y+1/2,-z+1/2'
'-x,y+1/2,-z+1/2'
'-x,-y+1/2,z+1/2'
'y,x+1/2,-z+1/2'
'-y,-x+1/2,-z+1/2'
'z,-y+1/2,x+1/2'
'-z,-y+1/2,-x+1/2'
'-x,z+1/2,y+1/2'
'-x,-z+1/2,-y+1/2'
'-x,-y+1/2,-z+1/2'
'-x,z+1/2,-y+1/2'
'-x,-z+1/2,y+1/2'
'-z,-y+1/2,x+1/2'
'z,-y+1/2,-x+1/2'
'y,-x+1/2,-z+1/2'
'-y,x+1/2,-z+1/2'
'-z,-x+1/2,-y+1/2'
'-y,-z+1/2,-x+1/2'
'y,z+1/2,-x+1/2'
'-z,x+1/2,y+1/2'
'y,-z+1/2,x+1/2'
'z,x+1/2,-y+1/2'
'z,-x+1/2,y+1/2'
'-y,z+1/2,x+1/2'
'-x,y+1/2,z+1/2'
'x,-y+1/2,z+1/2'
'x,y+1/2,-z+1/2'
'-y,-x+1/2,z+1/2'
'y,x+1/2,z+1/2'
'-z,y+1/2,-x+1/2'
'z,y+1/2,x+1/2'
'x,-z+1/2,-y+1/2'
'x,z+1/2,y+1/2'
'x+1/2,y,z+1/2'
'x+1/2,-z,y+1/2'
'x+1/2,z,-y+1/2'
'z+1/2,y,-x+1/2'
'-z+1/2,y,x+1/2'
'-y+1/2,x,z+1/2'
'y+1/2,-x,z+1/2'
'z+1/2,x,y+1/2'
'y+1/2,z,x+1/2'
'-y+1/2,-z,x+1/2'
'z+1/2,-x,-y+1/2'
'-y+1/2,z,-x+1/2'
'-z+1/2,-x,y+1/2'
'-z+1/2,x,-y+1/2'
'y+1/2,-z,-x+1/2'
'x+1/2,-y,-z+1/2'
'-x+1/2,y,-z+1/2'
'-x+1/2,-y,z+1/2'
'y+1/2,x,-z+1/2'
'-y+1/2,-x,-z+1/2'
'z+1/2,-y,x+1/2'
'-z+1/2,-y,-x+1/2'
'-x+1/2,z,y+1/2'
'-x+1/2,-z,-y+1/2'
'-x+1/2,-y,-z+1/2'
'-x+1/2,z,-y+1/2'
'-x+1/2,-z,y+1/2'
'-z+1/2,-y,x+1/2'
'z+1/2,-y,-x+1/2'
'y+1/2,-x,-z+1/2'
'-y+1/2,x,-z+1/2'
'-z+1/2,-x,-y+1/2'
'-y+1/2,-z,-x+1/2'
'y+1/2,z,-x+1/2'
'-z+1/2,x,y+1/2'
'y+1/2,-z,x+1/2'
'z+1/2,x,-y+1/2'
'z+1/2,-x,y+1/2'
'-y+1/2,z,x+1/2'
'-x+1/2,y,z+1/2'
'x+1/2,-y,z+1/2'
'x+1/2,y,-z+1/2'
'-y+1/2,-x,z+1/2'
'y+1/2,x,z+1/2'
'-z+1/2,y,-x+1/2'
'z+1/2,y,x+1/2'
'x+1/2,-z,-y+1/2'
'x+1/2,z,y+1/2'
'x+1/2,y+1/2,z'
'x+1/2,-z+1/2,y'
'x+1/2,z+1/2,-y'
'z+1/2,y+1/2,-x'
'-z+1/2,y+1/2,x'
'-y+1/2,x+1/2,z'
'y+1/2,-x+1/2,z'
'z+1/2,x+1/2,y'
'y+1/2,z+1/2,x'
'-y+1/2,-z+1/2,x'
'z+1/2,-x+1/2,-y'
'-y+1/2,z+1/2,-x'
'-z+1/2,-x+1/2,y'
'-z+1/2,x+1/2,-y'
'y+1/2,-z+1/2,-x'
'x+1/2,-y+1/2,-z'
'-x+1/2,y+1/2,-z'
'-x+1/2,-y+1/2,z'
'y+1/2,x+1/2,-z'
'-y+1/2,-x+1/2,-z'
'z+1/2,-y+1/2,x'
'-z+1/2,-y+1/2,-x'
'-x+1/2,z+1/2,y'
'-x+1/2,-z+1/2,-y'
'-x+1/2,-y+1/2,-z'
'-x+1/2,z+1/2,-y'
'-x+1/2,-z+1/2,y'
'-z+1/2,-y+1/2,x'
'z+1/2,-y+1/2,-x'
'y+1/2,-x+1/2,-z'
'-y+1/2,x+1/2,-z'
'-z+1/2,-x+1/2,-y'
'-y+1/2,-z+1/2,-x'
'y+1/2,z+1/2,-x'
'-z+1/2,x+1/2,y'
'y+1/2,-z+1/2,x'
'z+1/2,x+1/2,-y'
'z+1/2,-x+1/2,y'
'-y+1/2,z+1/2,x'
'-x+1/2,y+1/2,z'
'x+1/2,-y+1/2,z'
'x+1/2,y+1/2,-z'
'-y+1/2,-x+1/2,z'
'y+1/2,x+1/2,z'
'-z+1/2,y+1/2,-x'
'z+1/2,y+1/2,x'
'x+1/2,-z+1/2,-y'
'x+1/2,z+1/2,y'


loop_
_atom_site_label
_atom_site_type_symbol
_atom_site_fract_x
_atom_site_fract_y
_atom_site_fract_z
_atom_site_occupancy
_atom_site_U_iso_or_equiv
Si1 Si 0.10993 0.18083 0.24967 0.5 0.0117
Al1 Al 0.10993 0.18083 0.24967 0.5 0.0117
Si2 Si 0.05044 0.12239 0.19243 0.5 0.0120
Al2 Al 0.05044 0.12239 0.19243 0.5 0.0120
O1 O 0.0674 0.15559 0.23003 1.0 0.0191
O2 O 0.21169 0.21169 0.13239 1.0 0.0174
O3 O 0.21022 0.21022 0.40798 1.0 0.0167
O4 O 0.1464 0.1464 0.26611 1.0 0.0218
O5 O 0.14402 0.14402 0.05687 1.0 0.0263
O6 O 0.0772 0.0772 0.19159 1.0 0.0255
O7 O 0.11259 0.20286 0.0 1.0 0.0260
Ca1 Ca 0.09965 0.09965 0.09965 1.0 0.0258
Ca2 Ca 0.20984 0.20984 0.20984 1.0 0.0156
K1 K 0.17945 0.27909 0.0 0.125 0.0339
Ca3 Ca 0.17945 0.27909 0.0 0.125 0.0339
Sr1 Sr 0.17945 0.27909 0.0 0.125 0.0339
Ba1 Ba 0.17945 0.27909 0.0 0.125 0.0339
Cu2 Cu 0.07339 0.07339 0.0 1.0 0.0293
OH1 O 0.04506 0.04506 0.10539 1.0 0.0274
OH2 O 0.28335 0.28335 0.28335 1.0 0.0163
Cl1 Cl 0.0 0.0 0.0 0.224 0.0110
O8 O 0.041 0.0 0.0 0.181 0.0680
O9 O 0.0262 0.0262 0.0262 0.243 0.0500
O10 O 0.1467 0.1467 0.1467 1.0 0.1230
O11 O 0.0159 0.1842 0.0 0.305 0.1109
O12 O 0.2087 0.2339 0.0 0.5 0.0470
O13 O 0.0085 0.1316 0.3048 0.22 0.1320
O14 O 0.13599 0.13559 0.13559 1.0 0.0719
O15 O 0.0336 0.0336 0.2642 0.195 0.1001
O16 O 0.0714 0.0888 0.3105 0.189 0.1001
O17 O 0.0514 0.1204 0.3298 0.4 0.2130




