data_Mu-18
_cell_length_a        18.035
_cell_length_b        10.513
_cell_length_c        14.293
_cell_angle_alpha    90.0
_cell_angle_beta     90.0
_cell_angle_gamma    90.0


# setting 
# _symmetry_space_group_name_H-M 'Aba2'


loop_
_symmetry_equiv_pos_as_xyz
'x,y,z'
'-x,-y,z'
'-x+1/2,y+1/2,z'
'x+1/2,-y+1/2,z'
'x,y+1/2,z+1/2'
'-x,-y+1/2,z+1/2'
'-x+1/2,y+1,z+1/2'
'x+1/2,-y+1,z+1/2'


loop_
_atom_site_label
_atom_site_type_sumbol
_atom_site_fract_x
_atom_site_fract_y
_atom_site_fract_z
_atom_site_occupancy
_atom_site_U_iso_or_equiv
Ga1 Ga 0.70282 0.80786 0.64851 1.0 0.0117
Ga2 Ga 0.68499 0.62454 0.37474 1.0 0.0149
Ga3 Ga 0.60925 0.85355 0.05748 1.0 0.0118
P1 P 0.5751 0.6424 0.5444 1.0 0.0155
P2 P 0.7042 0.8395 0.8747 1.0 0.0144
P3 P 0.6693 0.6134 0.1598 1.0 0.0132
O1 O 0.7496 0.6424 0.1360 1.0 0.0129
O2 O 0.6525 0.6621 0.2579 1.0 0.0199
O3 O 0.7915 0.8881 0.6106 1.0 0.0160
H33A H 0.7861 0.9782 0.6189 1.0 0.0799
O4 O 0.6328 0.8392 0.9300 1.0 0.0199
O5 O 0.6026 0.6193 0.4447 1.0 0.0229
O6 O 0.6183 0.7513 0.5884 1.0 0.0190
O7 O 0.6156 0.6854 0.0947 1.0 0.0149
O8 O 0.7614 0.7562 0.9239 1.0 0.0229
O9 O 0.6884 0.7862 0.7782 1.0 0.0229
O10 O 0.7361 0.9743 0.8716 1.0 0.0180
O12 O 0.5057 0.8187 0.0379 1.0 0.0180
O13 O 0.6556 0.9719 0.6511 1.0 0.0180
O11 O 0.5859 1.0186 0.0991 1.0 0.0149
O1W O2-(H2O) 0.4974 0.2787 0.7740 0.50 0.0570
C C 0.5184 0.7308 0.7812 0.50 0.1722
H0A H 0.4715 0.7724 0.7733 0.50 0.2596
H0B H 0.5540 0.7905 0.8050 0.50 0.2596
H0C H 0.5351 0.6986 0.7220 0.50 0.2596
N1 N 0.5081 0.6298 0.8495 0.50 0.1722
H1A H 0.5072 0.6765 0.9023 0.50 0.2596
C1 C 0.4378 0.5807 0.8604 1.0 0.1722
H1B H 0.4088 0.6037 0.8067 1.0 0.2596
H1C H 0.4145 0.6197 0.9136 1.0 0.2596
C2 C 0.4287 0.4429 0.8831 1.0 0.1722
H2C H 0.4244 0.4027 0.8230 1.0 0.2596
H2D H 0.3848 0.4242 0.9184 1.0 0.2596
N2 N 0.4939 0.3856 0.9167 0.50 0.1722
H2A H 0.4898 0.3012 0.9255 0.50 0.2596
H2B H 0.4984 0.4233 0.9730 0.50 0.2596




