data_UZM-5
_cell_length_a        12.151
_cell_length_b        12.151
_cell_length_c        28.172
_cell_angle_alpha    90.0
_cell_angle_beta     90.0
_cell_angle_gamma    90.0


# setting 
_symmetry_space_group_name_H-M 'I4/mmm'


loop_
_symmetry_equiv_pos_as_xyz
'x,y,z'
'-y,x,z'
'y,-x,z'
'x,-y,-z'
'-x,y,-z'
'-x,-y,z'
'y,x,-z'
'-y,-x,-z'
'-x,-y,-z'
'y,-x,-z'
'-y,x,-z'
'-x,y,z'
'x,-y,z'
'x,y,-z'
'-y,-x,z'
'y,x,z'
'x+1/2,y+1/2,z+1/2'
'-y+1/2,x+1/2,z+1/2'
'y+1/2,-x+1/2,z+1/2'
'x+1/2,-y+1/2,-z+1/2'
'-x+1/2,y+1/2,-z+1/2'
'-x+1/2,-y+1/2,z+1/2'
'y+1/2,x+1/2,-z+1/2'
'-y+1/2,-x+1/2,-z+1/2'
'-x+1/2,-y+1/2,-z+1/2'
'y+1/2,-x+1/2,-z+1/2'
'-y+1/2,x+1/2,-z+1/2'
'-x+1/2,y+1/2,z+1/2'
'x+1/2,-y+1/2,z+1/2'
'x+1/2,y+1/2,-z+1/2'
'-y+1/2,-x+1/2,z+1/2'
'y+1/2,x+1/2,z+1/2'


loop_
_atom_site_label
_atom_site_type_symbol
_atom_site_fract_x
_atom_site_fract_y
_atom_site_fract_z
_atom_site_occupancy
_atom_site_U_iso_or_equiv
Si1 Si 0.1796 0.0 0.0552 0.875 0.0608
Si2 Si 0.3781 0.2005 0.2006 0.875 0.0608
Si3 Si 0.3748 0.0 0.1341 0.875 0.0608
Al1 Al 0.1796 0.0 0.0552 0.125 0.0608
Al2 Al 0.3781 0.2005 0.2006 0.125 0.0608
Al3 Al 0.3748 0.0 0.1341 0.125 0.0608
O1 O 0.2965 0.0 0.0876 1.0 0.0481
O2 O 0.2095 0.0 0.0 1.0 0.0481
O3 O 0.1060 0.1060 0.0665 1.0 0.0481
O4 O 0.3525 0.1475 0.25 1.0 0.0481
O5 O 0.3576 0.1116 0.1606 1.0 0.0481
O6 O 0.5 0.2561 0.2040 1.0 0.0481
O7 O 0.3153 0.3153 0.1911 1.0 0.0481
O8 O 0.5 0.0 0.1122 1.0 0.0481
K1 K 0.5 0.5 0.1937 0.76 0.0507
K2 K 0.5 0.0 0.0 0.54 0.0507




