data_IM-16
_cell_length_a        15.0861
_cell_length_b        17.7719
_cell_length_c        19.9764
_cell_angle_alpha    90.00
_cell_angle_beta     90.00
_cell_angle_gamma    90.00


# setting 
_symmetry_space_group_name_H-M 'Cmcm'


loop_
_symmetry_equiv_pos_as_xyz
'x,y,z'
'x,-y,-z'
'-x,y,-z+1/2'
'-x,-y,z+1/2'
'-x,-y,-z'
'-x,y,z'
'x,-y,z-1/2'
'x,y,-z-1/2'
'x+1/2,y+1/2,z'
'x+1/2,-y+1/2,-z'
'-x+1/2,y+1/2,-z+1/2'
'-x+1/2,-y+1/2,z+1/2'
'-x+1/2,-y+1/2,-z'
'-x+1/2,y+1/2,z'
'x+1/2,-y+1/2,z-1/2'
'x+1/2,y+1/2,-z-1/2'


loop_
_atom_site_label
_atom_site_type_symbol
_atom_site_fract_x
_atom_site_fract_y
_atom_site_fract_z
_atom_site_occupancy
_atom_site_U_iso_or_equiv
Ge1 Ge 0.3979 0.38872 0.44864 0.625 0.0005
Si1 Si 0.3979 0.38872 0.44864 0.375 0.0005
Ge2 Ge 0.3964 0.33933 0.60215 0.526 0.0005
Si2 Si 0.3964 0.33933 0.60215 0.474 0.0005
Ge3 Ge 0.1034 0.28321 0.59519 0.555 0.0005
Si3 Si 0.1034 0.28321 0.59519 0.445 0.0005
Si4 Si 0.3975 0.16704 0.5595 0.478 0.0005
Ge4 Ge 0.3975 0.16704 0.5595 0.522 0.0005
Si5 Si 0.2258 0.3901 0.67049 0.893 0.0005
Ge5 Ge 0.2258 0.3901 0.67049 0.107 0.0005
Si6 Si 0.2760 0.0289 0.57462 0.808 0.0005
Ge6 Ge 0.2760 0.0289 0.57462 0.192 0.0005
O1 O 0.3583 0.3685 0.5266 1.0 0.0006
O2 O 0.5 0.4205 0.4530 1.0 0.0006
O3 O 0.3960 0.2466 0.6039 1.0 0.0006
O4 O 0.3319 0.3749 0.6602 1.0 0.0006
O5 O 0.5 0.3727 0.6132 1.0 0.0006
O6 O 0.1735 0.3141 0.6494 1.0 0.0006
O7 O 0.3720 0.1816 0.4792 1.0 0.0006
O8 O 0.3956 0.3113 0.4035 1.0 0.0006
O9 O 0.2065 0.4087 0.75 1.0 0.0006
O10 O 0.0 0.3147 0.6149 1.0 0.0006
O11 O 0.3270 0.1075 0.5911 1.0 0.0006
O12 O 0.5 0.1295 0.5624 1.0 0.0006
O13 O 0.3333 0.4566 0.4163 1.0 0.0006
O14 O 0.1908 0.4626 0.6260 1.0 0.0006
O15 O 0.2988 0.0 0.5 1.0 0.0006
Ow1 O 0.0 -0.0082 0.1602 0.109 0.0016
Ow2 O 0.2488 0.2285 0.5504 0.157 0.0016




