data_IM-17
_cell_length_a        12.6788
_cell_length_b        22.2170
_cell_length_c        39.058
_cell_angle_alpha    90.00
_cell_angle_beta     90.00
_cell_angle_gamma    90.00


# setting 
_symmetry_space_group_name_H-M 'Amm2'


loop_
_symmetry_equiv_pos_as_xyz
'x,y,z'
'-x,-y,z'
'-x,y,z'
'x,-y,z'
'x,y+1/2,z+1/2'
'-x,-y+1/2,z+1/2'
'-x,y+1/2,z+1/2'
'x,-y+1/2,z+1/2'


loop_
_atom_site_label
_atom_site_type_symbol
_atom_site_fract_x
_atom_site_fract_y
_atom_site_fract_z
_atom_site_occupancy
_atom_site_U_iso_or_equiv
Si1 Si 0.0000 0.4292 0.8624 1.0 0.0711
Si2 Si 0.0000 0.4300 0.9444 1.0 0.0711
Si3 Si 0.1887 0.3470 0.8396 1.0 0.0711
Si4 Si 0.1910 0.3520 0.9672 0.762 0.0711
Ge4 Ge 0.1910 0.3520 0.9672 0.238 0.0711
Si5 Si 0.3695 0.4305 0.86112 0.44 0.0711
Ge5 Ge 0.3695 0.4305 0.86112 0.56 0.0711
Si6 Si 0.1262 0.2706 0.9045 0.929 0.0711
Ge6 Ge 0.1262 0.2706 0.9045 0.071 0.0711
Si7 Si 0.1232 0.2616 0.7852 1.0 0.0711
Si8 Si 0.3764 0.4290 0.94284 0.11 0.0711
Ge8 Ge 0.3764 0.4290 0.94284 0.89 0.0711
Si9 Si 0.1258 0.2686 1.0268 0.772 0.0711
Ge9 Ge 0.1258 0.2686 1.0268 0.228 0.0711
Si10 Si 0.1222 0.1378 0.9298 1.0 0.0711
Si11 Si 0.1965 0.1328 0.8027 1.0 0.0711
Si12 Si 0.1210 0.2547 0.7040 0.927 0.0711
Ge12 Ge 0.1210 0.2547 0.7040 0.073 0.0711
Si13 Si 0.1936 0.1387 1.0048 1.0 0.0711
Si14 Si 0.1257 0.2626 1.1047 1.0 0.0711
Si15 Si 0.1212 0.0712 0.8660 1.0 0.0711
Si16 Si 0.3801 0.0714 0.7644 0.69 0.0711
Ge16 Ge 0.3801 0.0714 0.7644 0.31 0.0711
Si17 Si 0.0000 0.0691 0.7662 1.0 0.0711
Si18 Si 0.1899 0.1505 0.6623 0.791 0.0711
Ge18 Ge 0.1899 0.1505 0.6623 0.209 0.0711
Si19 Si 0.1848 0.3468 0.6479 1.0 0.0711
Si20 Si 0.3716 0.0723 1.0442 0.30 0.0711
Ge20 Ge 0.3716 0.0723 1.0442 0.70 0.0711
Si21 Si 0.0000 0.0709 1.0404 1.0 0.0711
Si22 Si 0.3741 0.0714 0.6829 0.336 0.0711
Ge22 Ge 0.3741 0.0714 0.6829 0.664 0.0711
Si23 Si 0.0000 0.0688 0.6838 1.0 0.0711
Ge24 Ge 0.3717 0.4244 0.6273 1.0 0.0711
Si25 Si 0.0000 0.4288 0.6228 1.0 0.0711
O1 O 0.0000 0.5000 0.8540 1.0 0.0603
O2 O 0.0000 0.4193 0.9035 1.0 0.0603
O3 O 0.1027 0.3985 0.8461 1.0 0.0603
O4 O 0.0000 0.5000 0.9520 1.0 0.0603
O5 O 0.1026 0.4010 0.9613 1.0 0.0603
O6 O 0.3034 0.3771 0.8399 1.0 0.0603
O7 O 0.1776 0.2945 0.8686 1.0 0.0603
O8 O 0.1698 0.3202 0.8024 1.0 0.0603
O9 O 0.3036 0.3836 0.9673 1.0 0.0603
O10 O 0.1821 0.3038 0.9366 1.0 0.0603
O11 O 0.1715 0.3216 1.0038 1.0 0.0603
O12 O 0.5000 0.4157 0.8581 1.0 0.0603
O13 O 0.3325 0.4284 0.9024 1.0 0.0603
O14 O 0.3450 0.5000 0.8444 1.0 0.0603
O15 O 0.1466 0.1998 0.9095 1.0 0.0603
O16 O 0.0000 0.2831 0.9047 1.0 0.0603
O17 O 0.0000 0.2564 0.7947 1.0 0.0603
O18 O 0.1853 0.2045 0.8001 1.0 0.0603
O19 O 0.1373 0.2665 0.7443 1.0 0.0603
O20 O 0.373 0.5000 0.9589 1.0 0.0603
O21 O 0.5000 0.4035 0.9433 1.0 0.0603
O22 O 0.0000 0.2657 1.0227 1.0 0.0603
O23 O 0.1771 0.2076 1.0142 1.0 0.0603
O24 O 0.1557 0.2790 1.0660 1.0 0.0603
O25 O 0.1513 0.0835 0.9051 1.0 0.0603
O26 O 0.0000 0.1340 0.9394 1.0 0.0603
O27 O 0.1889 0.1314 0.9642 1.0 0.0603
O28 O 0.3070 0.1124 0.7877 1.0 0.0603
O29 O 0.1035 0.1016 0.7812 1.0 0.0603
O30 O 0.1918 0.1129 0.8419 1.0 0.0603
O31 O 0.0000 0.2392 0.6964 1.0 0.0603
O32 O 0.1932 0.1991 0.6926 1.0 0.0603
O33 O 0.1532 0.3138 0.6828 1.0 0.0603
O34 O 0.3056 0.1175 1.0180 1.0 0.0603
O35 O 0.1029 0.1007 1.0233 1.0 0.0603
O36 O 0.0000 0.2544 1.1082 1.0 0.0603
O37 O 0.1862 0.2023 1.1173 1.0 0.0603
O38 O 0.1622 0.3169 1.1277 1.0 0.0603
O39 O 0.140 0.0000 0.8580 1.0 0.0603
O40 O 0.0000 0.0880 0.8595 1.0 0.0603
O41 O 0.3566 0.0862 0.7248 1.0 0.0603
O42 O 0.5000 0.0882 0.7728 1.0 0.0603
O43 O 0.359 0.0000 0.7725 1.0 0.0603
O44 O 0.0000 0.0724 0.7250 1.0 0.0603
O45 O 0.0000 0.0000 0.7776 1.0 0.0603
O46 O 0.3013 0.1176 0.6588 1.0 0.0603
O47 O 0.1023 0.1016 0.6693 1.0 0.0603
O48 O 0.2967 0.3790 0.6526 1.0 0.0603
O49 O 0.1016 0.3980 0.6394 1.0 0.0603
O50 O 0.5000 0.0892 1.0408 1.0 0.0603
O51 O 0.3332 0.0831 1.0853 1.0 0.0603
O52 O 0.3510 0.0000 1.0326 1.0 0.0603
O53 O 0.0000 0.0000 1.0326 1.0 0.0603
O54 O 0.0000 0.0814 1.0816 1.0 0.0603
O55 O 0.5000 0.0812 0.6726 1.0 0.0603
O56 O 0.339 0.0000 0.6749 1.0 0.0603
O57 O 0.0000 0.0000 0.6717 1.0 0.0603
O58 O 0.361 0.5000 0.6393 1.0 0.0603
O59 O 0.5000 0.4019 0.6312 1.0 0.0603
O60 O 0.0000 0.5000 0.6313 1.0 0.0603
H201 O2- 0.5000 0.2450 0.2059 1.16 0.1249
H202 O2- 0.5000 0.436 0.0425 1.17 0.1249
H203 O2- 0.5000 0.5000 0.3050 0.71 0.1249
H204 O2- 0.5000 0.5000 0.6975 1.02 0.1249
H205 O2- 0.1570 0.6130 0.7205 0.80 0.1249




