data_IM-12
_cell_length_a        29.8004
_cell_length_b        13.9926
_cell_length_c        12.3926
_cell_angle_alpha    90.0
_cell_angle_beta     105.185
_cell_angle_gamma    90.0


# setting 
_symmetry_space_group_name_H-M 'C2/m'


loop_
_symmetry_equiv_pos_as_xyz
'x,y,z'
'-x,y,-z'
'-x,-y,-z'
'x,-y,z'
'x+1/2,y+1/2,z'
'-x+1/2,y+1/2,-z'
'-x+1/2,-y+1/2,-z'
'x+1/2,-y+1/2,z'


loop_
_atom_site_label
_atom_site_type_symbol
_atom_site_fract_x
_atom_site_fract_y
_atom_site_fract_z
_atom_site_occupancy
_atom_site_U_iso_or_equiv
Ge1 Ge 0.4474 0.6144 0.8253 0.77 0.0380
Ge2 Ge 0.4408 0.6125 1.0867 0.753 0.0279
Si1 Si 0.2676 1 0.7912 1 0.0494
Si2 Si 0.2291 0.5 0.8244 1 0.0494
Si3 Si 0.3052 0.5 0.6799 1 0.0494
Si4 Si 0.2284 0.5 0.4591 1 0.0494
Si5 Si 0.2951 0.7974 1.2393 1 0.0494
Si6 Si 0.2972 0.7965 0.4923 1 0.0494
Si7 Si 0.3044 0.7988 0.8584 1 0.0494
Si8 Si 0.3468 0.6978 1.0903 1 0.0494
Si9 Si 0.3561 0.6997 0.6986 1 0.0494
Si10 Si 0.2955 0.5 1.0606 1 0.0494
O1 O 0.3011 0.9045 1.2108 1 0.0760
O2 O 0.3369 0.5951 0.709 1 0.0760
O3 O 0.2385 0.5 0.3398 1 0.0760
O4 O 0.2482 0.5 0.96 1 0.0760
O5 O 0.4285 0.6159 0.9437 1 0.0760
O6 O 0.3307 0.7319 1.1994 1 0.0760
O7 O 0.329 0.7749 0.9903 1 0.0760
O8 O 0.4373 0.5 1.139 1 0.0760
O9 O 0.5036 0.649 0.834 0.5 0.0760
O9' O 0.5032 0.667 0.865 0.5 0.0760
O10 O 0.4466 0.5 0.771 1 0.0760
O11 O 0.4027 0.6876 1.1289 1 0.0760
O12 O 0.2821 0.5 1.1811 1 0.0760
O13 O 0.4127 0.6952 0.7273 1 0.0760
O14 O 0.297 0.9096 0.8436 1 0.0760
O15 O 0.25 0.75 0.5 1 0.0760
O16 O 0.3254 0.5943 1.0516 1 0.0760
O17 O 0.3368 0.7686 0.7804 1 0.0760
O18 O 0.2694 0.5 0.7591 1 0.0760
O19 O 0.3001 0.906 0.5276 1 0.0760
O20 O 0.2786 0.5 0.5463 1 0.0760
O21 O 0.3055 0.784 0.3718 1 0.0760
O22 O 0.3361 0.7339 0.5701 1 0.0760
O23 O 0.2558 0.7398 0.8219 1 0.0760




