data_IM-20
_cell_length_a        25.1611
_cell_length_b        12.7013
_cell_length_c        11.6001
_cell_angle_alpha    90.00
_cell_angle_beta     90.00
_cell_angle_gamma    90.00


# setting 
# _symmetry_space_group_name_H-M 'Pmmm'


loop_
_symmetry_equiv_pos_as_xyz
'x,y,z'
'x,-y,-z'
'-x,y,-z'
'-x,-y,z'
'-x,-y,-z'
'-x,y,z'
'x,-y,z'
'x,y,-z'


loop_
_atom_site_label
_atom_site_type_sumbol
_atom_site_fract_x
_atom_site_fract_y
_atom_site_fract_z
_atom_site_occupancy
_atom_site_U_iso_or_equiv
Ge2 Si 0.3446 0.3763 0.3616 0.3110 0.0234
Ge2 Si 0.3446 0.3763 0.3616 0.3110 0.0234
Ge3 Si 0.2186 0.3771 0.3622 0.4060 0.0234
Ge3 Si 0.2186 0.3771 0.3622 0.4060 0.0234
Ge7 Ge 0.3877 0.1917 0.2220 0.1850 0.0234
Ge1 Ge 0.0598 0.1261 0.3678 0.1050 0.0234
Ge1 Ge 0.0598 0.1261 0.3678 0.1050 0.0234
Si4 Ge 0.1946 0.1259 0.0000 0.1760 0.0234
Si4 Ge 0.1946 0.1259 0.0000 0.1760 0.0234
Si5 Ge 0.3237 0.1260 0.0000 0.3620 0.0234
Si5 Ge 0.3237 0.1260 0.0000 0.3620 0.0234
Si6 Ge 0.5000 0.1251 0.1364 0.0640 0.0234
Si6 Ge 0.5000 0.1251 0.1364 0.0640 0.0234
Si7 Si 0.3876 0.1922 0.2216 0.8150 0.0234
Si8 Ge 0.1596 0.1941 0.2456 0.1550 0.0234
Si8 Ge 0.1596 0.1941 0.2456 0.1550 0.0234
Si9 Ge 0.3480 0.0000 0.3630 0.0610 0.0234
Si9 Ge 0.3480 0.0000 0.3630 0.0610 0.0234
Si10 Ge 0.2198 0.0000 0.3623 0.3400 0.0234
Si10 Ge 0.2198 0.0000 0.3623 0.3400 0.0234
O1 O 0.3573 0.3467 0.5000 1.0000 0.0270
O2 O 0.2597 0.1449 0.0000 1.0000 0.0270
O3 O 0.5000 0.1384 0.0000 1.0000 0.0270
O4 O 0.2058 0.3468 0.5000 1.0000 0.0270
O5 O 0.2045 0.5000 0.3324 1.0000 0.0270
O6 O 0.1816 0.0000 0.0000 1.0000 0.0270
O7 O 0.2846 0.0000 0.3332 1.0000 0.0270
O8 O 0.5000 0.0000 0.1683 1.0000 0.0270
O9 O 0.1813 0.3068 0.2796 1.0000 0.0270
O10 O 0.2815 0.3528 0.3319 1.0000 0.0270
O11 O 0.1676 0.1800 0.8880 1.0000 0.0270
O12 O 0.1931 0.1047 0.3075 1.0000 0.0270
O13 O 0.2067 0.0000 0.5000 1.0000 0.0270
O14 O 0.3745 0.1030 0.3097 1.0000 0.0270
O15 O 0.4474 0.1821 0.1870 1.0000 0.0270
O16 O 0.3602 0.0000 0.5000 1.0000 0.0270
O17 O 0.3808 0.3030 0.2786 1.0000 0.0270
O18 O 0.3491 0.1806 0.1125 1.0000 0.0270
O19 O 0.3594 0.5000 0.3322 1.0000 0.0270
O20 O 0.0000 0.1535 0.3321 1.0000 0.0270
O21 O 0.0974 0.1859 0.2794 1.0000 0.0270
O22 O 0.0697 0.0000 0.3573 1.0000 0.0270
O23 O 0.0714 0.1649 0.5000 1.0000 0.0270
O24 O 0.3365 0.0000 0.0000 1.0000 0.0270
Ow1 O 0.0708 0.3744 0.2541 0.6330 0.0850
Ow2 O 0.0342 0.0988 0.1105 0.7430 0.0850
Ow3 O 0.5000 0.3352 0.0000 0.2700 0.0850
Ow4 O 0.2814 0.2196 0.5000 0.5460 0.0850
Ge1 Ge 0.0598 0.1261 0.3678 0.1050 0.0234
Ge1 Ge 0.0598 0.1261 0.3678 0.1050 0.0234
Si4 Ge 0.1946 0.1259 0.0000 0.1760 0.0234
Si4 Ge 0.1946 0.1259 0.0000 0.1760 0.0234
Si5 Ge 0.3237 0.1260 0.0000 0.3620 0.0234
Si5 Ge 0.3237 0.1260 0.0000 0.3620 0.0234
Si6 Ge 0.5000 0.1251 0.1364 0.0640 0.0234
Si6 Ge 0.5000 0.1251 0.1364 0.0640 0.0234
Si7 Si 0.3876 0.1922 0.2216 0.8150 0.0234
Si8 Ge 0.1596 0.1941 0.2456 0.1550 0.0234
Si8 Ge 0.1596 0.1941 0.2456 0.1550 0.0234
Si9 Ge 0.3480 0.0000 0.3630 0.0610 0.0234
Si9 Ge 0.3480 0.0000 0.3630 0.0610 0.0234
Si10 Ge 0.2198 0.0000 0.3623 0.3400 0.0234
Si10 Ge 0.2198 0.0000 0.3623 0.3400 0.0234




