data_VPI-8
_cell_length_a         13.045
_cell_length_b         13.045
_cell_length_c         5.034
_cell_angle_alpha     90
_cell_angle_beta      90
_cell_angle_gamma     90


# setting 
# _symmetry_space_group_name_H-M 'P-4'


loop_
_symmetry_equiv_pos_as_xyz
'x,y,z'
'y,-x,-z'
'-y,x,-z'
'-x,-y,z'


loop_
_atom_site_label
_atom_site_type_sumbol
_atom_site_fract_x
_atom_site_fract_y
_atom_site_fract_z
_atom_site_occupancy
_atom_site_U_iso_or_equiv
SI1 Si 0.0000 0.0000 0.5000 1.0 0.0130
SI2 Si 0.1991 0.0485 0.7568 1.0 0.0130
SI3 Si 0.8341 0.2830 0.7444 1.0 0.0130
SI4 Si 0.6512 0.1468 0.7630 1.0 0.0130
SI5 Si 0.5182 0.12278 0.2656 1.0 0.0130
O34 O 0.7159 0.2492 0.7089 1.0 0.0250
O32 O 0.8867 0.2442 0.0133 1.0 0.0250
O35 O 0.8253 0.4062 0.748 1.0 0.0250
O24 O 0.7243 0.0464 0.7842 1.0 0.0250
O55 O 0.5000 0.0000 0.243 1.0 0.0250
O12 O 0.0746 0.0195 0.7489 1.0 0.0250
O54 O 0.5575 0.1441 0.5614 1.0 0.0250
O45 O 0.5998 0.1581 0.0521 1.0 0.0250
O23 O 0.9048 0.2340 0.5175 1.0 0.0250




