data_VPI-9
_cell_length_a         9.8837
_cell_length_b         9.8837
_cell_length_c         73.6505
_cell_angle_alpha     90
_cell_angle_beta      90
_cell_angle_gamma     90


# setting 
_symmetry_space_group_name_H-M 'P41212'


loop_
_symmetry_equiv_pos_as_xyz
'x,y,z'
'-y+1/2,x+1/2,z+1/4'
'y+1/2,-x+1/2,z+3/4'
'x+1/2,-y+1/2,-z+3/4'
'-x+1/2,y+1/2,-z+1/4'
'-x,-y,z+1/2'
'y,x,-z'
'-y,-x,-z+1/2'


loop_
_atom_site_label
_atom_site_type_symbol
_atom_site_fract_x
_atom_site_fract_y
_atom_site_fract_z
_atom_site_occupancy
_atom_site_U_iso_or_equiv
Si1 Si -0.05560 0.14097 0.04647 1.0 0.0041
Si2 Si 0.12355 0.36647 0.03339 1.0 0.0041
Si3 Si 0.34788 0.54161 0.04577 1.0 0.0041
Si4 Si 0.64551 0.45059 0.04531 1.0 0.0041
Si5 Si 0.70956 0.22908 0.01951 1.0 0.0041
Si6 Si 0.91831 0.59382 0.03688 1.0 0.0041
Zn7 Zn 0.76905 0.26960 0.07855 1.0 0.0100
Si8 Si 0.85239 0.37616 0.11695 1.0 0.0041
Si9 Si 0.63992 0.15641 0.11374 1.0 0.0041
Si10 Si 0.35908 0.14462 0.13017 1.0 0.0041
Si11 Si 0.13640 0.35246 0.13429 1.0 0.0041
Zn12 Zn 0.27595 0.23519 0.16979 1.0 0.0100
Si13 Si 0.43977 0.36294 0.20263 1.0 0.0041
Si14 Si 0.21756 0.29059 0.22953 1.0 0.0041
Zn15 Zn -0.00008 0.50334 0.24691 1.0 0.0100
O1 O 0.56914 0.90441 0.07753 1.25 0.0370
O2 O -0.08423 0.17140 0.06759 1.0 0.0250
O3 O 0.41652 0.41652 0.00000 0.25 0.0370
O4 O -0.17747 0.18145 0.03360 1.0 0.0250
O5 O 0.27867 0.39943 0.04014 1.0 0.0250
O6 O 0.02165 0.47477 0.04195 1.0 0.0250
O7 O 0.11120 0.37695 0.01106 1.0 0.0250
O8 O 0.62218 0.62218 0.00000 0.75 0.0370
O9 O 0.65363 0.37488 0.02615 1.0 0.0250
O10 O 0.77309 0.55290 0.04576 1.0 0.0250
O11 O 0.76847 0.24075 -0.00018 1.0 0.0250
O12 O 0.59335 0.11791 0.01974 1.0 0.0250
O13 O 0.91157 0.61905 0.01426 1.0 0.0250
O14 O 0.96658 0.72981 0.04654 1.0 0.0250
O15 O 0.64151 0.34871 0.06225 1.0 0.0250
O16 O 0.85799 0.39098 0.09506 1.0 0.0250
O17 O 0.66199 0.14092 0.09257 1.0 0.0250
O18 O 0.73381 0.27261 0.12267 1.0 0.0250
O19 O 0.68028 0.02001 0.12391 1.0 0.0250
O20 O 0.48533 0.19440 0.11787 1.0 0.0250
O21 O 0.23709 0.24422 0.12539 1.0 0.0250
O22 O 0.38915 0.14632 0.15157 1.0 0.0250
O23 O 0.31402 -0.00248 0.12264 1.0 0.0250
O24 O 0.13419 0.33967 0.15616 1.0 0.0250
O25 O -0.00850 0.32063 0.12528 1.0 0.0250
O26 O 0.36760 0.38136 0.18320 1.0 0.0250
O27 O 0.20338 0.09310 0.18492 1.0 0.0250
O28 O 0.33256 0.36743 0.21848 1.0 0.0250
O29 O 0.18986 0.14876 0.21931 1.0 0.0250
O30 O 0.08186 0.37815 0.23040 1.0 0.0250
Rb1 Rb 0.00301 0.00830 0.11980 0.875 0.0370
Rb2 Rb 0.16907 0.36207 0.08261 0.875 0.0370
Rb3 Rb 0.41652 0.41652 0.00000 0.75 0.0370
O3 O 0.41652 0.41652 0.00000 0.25 0.0370
Rb4 Rb 0.07877 0.07877 0.00000 1.0 0.0370
Rb5 Rb 0.64934 0.84320 0.03976 0.875 0.0370
Rb6 Rb 0.40656 0.13336 0.04950 0.75 0.0370
K6 K 0.32838 0.13511 0.03545 0.25 0.0370
Rb7 Rb 0.83939 0.69102 0.08693 0.75 0.0370
K7 K 0.86257 0.61323 0.07771 0.25 0.0370
Rb8 Rb 0.62218 0.62218 0.00000 0.25 0.0370
O8 O 0.62218 0.62218 0.00000 0.75 0.0370
Rb9 Rb 0.53776 0.56878 0.08892 0.375 0.0370
O1 O 0.56914 0.90441 0.07753 1.25 0.0370




