data_VPI-7
_cell_length_a         39.88
_cell_length_b         10.326
_cell_length_c         10.219
_cell_angle_alpha     90
_cell_angle_beta      90
_cell_angle_gamma     90


# setting 
# _symmetry_space_group_name_H-M 'Fdd2'


loop_
_symmetry_equiv_pos_as_xyz
'x,y,z'
'-x,-y,z'
'-x+1/4,y+1/4,z+1/4'
'x+1/4,-y+1/4,z+1/4'
'x,y+1/2,z+1/2'
'-x,-y+1/2,z+1/2'
'-x+1/4,y+3/4,z+3/4'
'x+1/4,-y+3/4,z+3/4'
'x+1/2,y,z+1/2'
'-x+1/2,-y,z+1/2'
'-x+3/4,y+1/4,z+3/4'
'x+3/4,-y+1/4,z+3/4'
'x+1/2,y+1/2,z'
'-x+1/2,-y+1/2,z'
'-x+3/4,y+3/4,z+1/4'
'x+3/4,-y+3/4,z+1/4'


loop_
_atom_site_label
_atom_site_type_sumbol
_atom_site_fract_x
_atom_site_fract_y
_atom_site_fract_z
_atom_site_occupancy
_atom_site_U_iso_or_equiv
NA1 Na 0.1269 0.201 0.059 0.89 0.0200
NA2 Na 0.2549 0.069 0.762 0.89 0.0200
SI1 Si 0.0 0.0 0.0 1.0 0.0236
SI2 Si 0.0718 0.4537 0.565 1.0 0.0236
SI3 Si 0.0868 0.1622 0.571 1.0 0.0236
SI4 Si 0.0904 0.4481 0.855 1.0 0.0236
ZN1 Zn 0.05488 0.1640 0.856 1.0 0.0236
O1 O 0.0087 0.1255 0.910 1.0 0.0110
O2 O 0.0319 0.464 0.589 1.0 0.0110
O3 O 0.0850 0.054 0.955 1.0 0.0110
O4 O 0.0809 0.3082 0.519 1.0 0.0110
O5 O 0.0572 0.120 0.670 1.0 0.0110
O6 O 0.0610 0.3481 0.887 1.0 0.0110
O7 O 0.0902 0.488 0.702 1.0 0.0110
O8 O 0.1228 0.142 0.641 1.0 0.0110
O9 O 0.0836 0.081 0.435 1.0 0.0110
H2O1 O2-(H2O) 0.0889 0.299 0.213 1.23 0.0700
H2O2 O2-(H2O) 0.25 0.75 0.124 1.3 0.0700
H2O3 O2-(H2O) 0.2237 0.627 0.436 1.23 0.0700




